# File generated by Flopy version 3.8.2 on 12/20/2024 at 20:29:23.
BEGIN options
  SAVE_FLOWS
END options

BEGIN dimensions
  MAXBOUND  10824
END dimensions

BEGIN period  1
  2 239 290 2.95000000E+02 1.13254542E+03
  3 239 290 2.80580017E+02 2.35620117E+03
  4 239 290 2.50580002E+02 1.26119531E+04
  2 239 291 2.94000000E+02 1.09877380E+03
  3 239 291 2.80010010E+02 2.35620117E+03
  4 239 291 2.50009995E+02 1.25671846E+04
  2 240 271 2.92000000E+02 9.29127114E+02
  3 240 271 2.80170013E+02 2.35619995E+03
  4 240 271 2.50170013E+02 1.25797520E+04
  2 240 272 2.96000000E+02 9.07922177E+02
  3 240 272 2.84440002E+02 2.35619995E+03
  4 240 272 2.54440002E+02 1.29151172E+04
  2 240 273 2.99000000E+02 9.14206720E+02
  3 240 273 2.87359985E+02 2.35619995E+03
  4 240 273 2.57359985E+02 1.31444531E+04
  2 240 274 3.00000000E+02 9.08708344E+02
  3 240 274 2.88429993E+02 2.35619995E+03
  4 240 274 2.58429993E+02 1.32284912E+04
  2 240 275 2.98000000E+02 8.81218866E+02
  3 240 275 2.86779999E+02 2.35619995E+03
  4 240 275 2.56779999E+02 1.30989014E+04
  2 240 276 2.92000000E+02 8.82005033E+02
  3 240 276 2.80769989E+02 2.35619995E+03
  4 240 276 2.50769989E+02 1.26268750E+04
  2 240 288 2.95000000E+02 1.15296659E+03
  3 240 288 2.80320007E+02 2.35619995E+03
  4 240 288 2.50320007E+02 1.25915332E+04
  2 240 289 2.98000000E+02 1.07442659E+03
  3 240 289 2.84320007E+02 2.35620117E+03
  4 240 289 2.54319992E+02 1.29056914E+04
  2 240 291 2.98000000E+02 1.13018932E+03
  3 240 291 2.83610016E+02 2.35620117E+03
  4 240 291 2.53610001E+02 1.28499287E+04
  2 240 292 2.98000000E+02 1.17652763E+03
  3 240 292 2.83020020E+02 2.35620117E+03
  4 240 292 2.53020004E+02 1.28035908E+04
  2 241 267 2.93000000E+02 9.61328800E+02
  3 241 267 2.80760010E+02 2.35619995E+03
  4 241 267 2.50760010E+02 1.26260908E+04
  2 241 268 2.97000000E+02 9.28343344E+02
  3 241 268 2.85179993E+02 2.35619995E+03
  4 241 268 2.55179993E+02 1.29732363E+04
  2 241 269 3.00000000E+02 8.74150554E+02
  3 241 269 2.88869995E+02 2.35619995E+03
  4 241 269 2.58869995E+02 1.32630488E+04
  2 241 270 3.04000000E+02 8.34880555E+02
  3 241 270 2.93369995E+02 2.35619995E+03
  4 241 270 2.63369995E+02 1.36164795E+04
  2 241 276 3.05000000E+02 8.38806596E+02
  3 241 276 2.94320007E+02 2.35619995E+03
  4 241 276 2.64320007E+02 1.36910938E+04
  2 241 277 2.95000000E+02 8.71008283E+02
  3 241 277 2.83910004E+02 2.35619995E+03
  4 241 277 2.53910004E+02 1.28734912E+04
  2 241 287 2.97000000E+02 1.15689263E+03
  3 241 287 2.82270020E+02 2.35620117E+03
  4 241 287 2.52270004E+02 1.27446855E+04
  2 241 292 2.98000000E+02 1.13725763E+03
  3 241 292 2.83520020E+02 2.35620117E+03
  4 241 292 2.53520004E+02 1.28428604E+04
  2 242 265 2.93000000E+02 1.01473782E+03
  3 242 265 2.80079987E+02 2.35619995E+03
  4 242 265 2.50079987E+02 1.25726816E+04
  2 242 266 2.98000000E+02 8.88287178E+02
  3 242 266 2.86690002E+02 2.35619995E+03
  4 242 266 2.56690002E+02 1.30918320E+04
  2 242 277 3.09000000E+02 8.22313868E+02
  3 242 277 2.98529999E+02 2.35619995E+03
  4 242 277 2.68529999E+02 1.40217451E+04
  2 242 278 2.95000000E+02 8.19957764E+02
  3 242 278 2.84559998E+02 2.35619995E+03
  4 242 278 2.54559998E+02 1.29245420E+04
  2 242 286 2.99000000E+02 1.13018932E+03
  3 242 286 2.84610016E+02 2.35620117E+03
  4 242 286 2.54610001E+02 1.29284688E+04
  2 242 292 2.98000000E+02 1.19145042E+03
  3 242 292 2.82830017E+02 2.35620117E+03
  4 242 292 2.52830002E+02 1.27886680E+04
  2 242 295 2.97000000E+02 1.31554496E+03
  3 242 295 2.80250000E+02 2.35619995E+03
  4 242 295 2.50250000E+02 1.25860342E+04
  2 242 296 2.99000000E+02 1.27784489E+03
  3 242 296 2.82730011E+02 2.35619995E+03
  4 242 296 2.52730011E+02 1.27808145E+04
  2 242 297 2.95000000E+02 1.25192775E+03
  3 242 297 2.79059998E+02 2.35619995E+03
  4 242 297 2.49059998E+02 1.24925723E+04
  2 243 264 2.97000000E+02 9.98242695E+02
  3 243 264 2.84290009E+02 2.35619995E+03
  4 243 264 2.54290009E+02 1.29033369E+04
  2 243 278 3.05000000E+02 8.27026076E+02
  3 243 278 2.94470001E+02 2.35619995E+03
  4 243 278 2.64470001E+02 1.37028730E+04
  2 243 279 2.95000000E+02 9.73895488E+02
  3 243 279 2.82600006E+02 2.35619995E+03
  4 243 279 2.52600006E+02 1.27706035E+04
  2 243 285 3.00000000E+02 1.14668204E+03
  3 243 285 2.85400024E+02 2.35620117E+03
  4 243 285 2.55400009E+02 1.29905166E+04
  2 243 292 2.97000000E+02 1.13961373E+03
  3 243 292 2.82490021E+02 2.35620117E+03
  4 243 292 2.52490005E+02 1.27619648E+04
  2 243 294 2.95000000E+02 1.28177333E+03
  3 243 294 2.78679993E+02 2.35619995E+03
  4 243 294 2.48679993E+02 1.24627256E+04
  2 243 297 2.98000000E+02 1.11841119E+03
  3 243 297 2.83759979E+02 2.35619995E+03
  4 243 297 2.53759979E+02 1.28617080E+04
  2 244 262 2.92000000E+02 1.01080938E+03
  3 244 262 2.79130005E+02 2.35619995E+03
  4 244 262 2.49130005E+02 1.24980703E+04
  2 244 263 2.97000000E+02 9.22844969E+02
  3 244 263 2.85250000E+02 2.35619995E+03
  4 244 263 2.55250000E+02 1.29787334E+04
  2 244 279 3.14000000E+02 8.56871659E+02
  3 244 279 3.03089996E+02 2.35619995E+03
  4 244 279 2.73089996E+02 1.43798877E+04
  2 244 280 2.94000000E+02 9.71539384E+02
  3 244 280 2.81630005E+02 2.35619995E+03
  4 244 280 2.51630005E+02 1.26944199E+04
  2 244 284 2.98000000E+02 1.14511211E+03
  3 244 284 2.83420013E+02 2.35620117E+03
  4 244 284 2.53419998E+02 1.28350068E+04
  2 244 292 2.98000000E+02 1.26449444E+03
  3 244 292 2.81899994E+02 2.35619995E+03
  4 244 292 2.51899994E+02 1.27156250E+04
  2 244 293 2.98000000E+02 1.30454821E+03
  3 244 293 2.81390015E+02 2.35619995E+03
  4 244 293 2.51390015E+02 1.26755713E+04
  2 244 297 2.97000000E+02 1.06028996E+03
  3 244 297 2.83500000E+02 2.35619995E+03
  4 244 297 2.53500000E+02 1.28412900E+04
  2 244 298 3.03000000E+02 1.07364282E+03
  3 244 298 2.89329987E+02 2.35619995E+03
  4 244 298 2.59329987E+02 1.32991758E+04
  2 245 261 2.94000000E+02 1.05872003E+03
  3 245 261 2.80519989E+02 2.35619995E+03
  4 245 261 2.50519989E+02 1.26072393E+04
  2 245 280 3.03000000E+02 9.12634386E+02
  3 245 280 2.91380005E+02 2.35619995E+03
  4 245 280 2.61380005E+02 1.34601855E+04
  2 245 283 2.94000000E+02 1.03751269E+03
  3 245 283 2.80790009E+02 2.35620117E+03
  4 245 283 2.50789993E+02 1.26284453E+04
  2 245 298 3.10000000E+02 9.71539384E+02
  3 245 298 2.97630005E+02 2.35619995E+03
  4 245 298 2.67630005E+02 1.39510605E+04
  2 245 299 2.97000000E+02 1.05400782E+03
  3 245 299 2.83579987E+02 2.35619995E+03
  4 245 299 2.53579987E+02 1.28475723E+04
  2 245 300 2.97000000E+02 1.16082106E+03
  3 245 300 2.82220001E+02 2.35619995E+03
  4 245 300 2.52220001E+02 1.27407588E+04
  2 245 301 2.97000000E+02 1.17495769E+03
  3 245 301 2.82040009E+02 2.35619995E+03
  4 245 301 2.52040009E+02 1.27266221E+04
  2 245 302 2.95000000E+02 1.30441174E+01
  3 245 302 2.79690002E+02 2.55599976E+01
  4 245 302 2.49690002E+02 1.36055878E+02
  2 246 260 2.94000000E+02 1.11055671E+03
  3 246 260 2.79859985E+02 2.35619995E+03
  4 246 260 2.49859985E+02 1.25554033E+04
  2 246 280 3.12000000E+02 8.82005033E+02
  3 246 280 3.00769989E+02 2.35619995E+03
  4 246 280 2.70769989E+02 1.41976748E+04
  2 246 281 3.01000000E+02 8.94571720E+02
  3 246 281 2.89609985E+02 2.35619995E+03
  4 246 281 2.59609985E+02 1.33211689E+04
  2 246 282 2.98000000E+02 9.84106071E+02
  3 246 282 2.85470001E+02 2.35619995E+03
  4 246 282 2.55470001E+02 1.29960127E+04
  2 246 302 3.01000000E+02 1.27544406E+01
  3 246 302 2.86029999E+02 2.55599976E+01
  4 246 302 2.56029999E+02 1.41457550E+02
  2 246 303 2.98000000E+02 1.34871481E+01
  3 246 303 2.82170013E+02 2.55599976E+01
  4 246 303 2.52170013E+02 1.38168854E+02
  2 246 310 2.98000000E+02 1.28098716E+03
  3 246 310 2.81690002E+02 2.35619995E+03
  4 246 310 2.51690002E+02 1.26991328E+04
  2 246 311 2.99000000E+02 1.21815613E+03
  3 246 311 2.83489990E+02 2.35619995E+03
  4 246 311 2.53489990E+02 1.28405029E+04
  2 246 312 2.99000000E+02 1.18831054E+03
  3 246 312 2.83869995E+02 2.35619995E+03
  4 246 312 2.53869995E+02 1.28703496E+04
  2 246 313 2.98000000E+02 1.17495769E+03
  3 246 313 2.83040009E+02 2.35619995E+03
  4 246 313 2.53040009E+02 1.28051621E+04
  2 246 314 2.96000000E+02 1.32059995E+01
  3 246 314 2.80500000E+02 2.55599976E+01
  4 246 314 2.50500000E+02 1.36745987E+02
  2 247 260 3.02000000E+02 1.02416224E+03
  3 247 260 2.88959991E+02 2.35619995E+03
  4 247 260 2.58959991E+02 1.32701172E+04
  2 247 303 3.05000000E+02 1.31037637E+01
  3 247 303 2.89619995E+02 2.55599976E+01
  4 247 303 2.59619995E+02 1.44516235E+02
  2 247 304 3.00000000E+02 1.31378510E+01
  3 247 304 2.84579987E+02 2.55599976E+01
  4 247 304 2.54579987E+02 1.40222137E+02
  2 247 309 3.01000000E+02 1.43732353E+01
  3 247 309 2.84130005E+02 2.55599976E+01
  4 247 309 2.54130005E+02 1.39838760E+02
  2 247 314 3.00000000E+02 1.31804405E+01
  3 247 314 2.84529999E+02 2.55599976E+01
  4 247 314 2.54529999E+02 1.40179550E+02
  2 248 259 2.98000000E+02 1.10662827E+03
  3 248 259 2.83910004E+02 2.35619995E+03
  4 248 259 2.53910004E+02 1.28734912E+04
  2 248 304 3.07000000E+02 1.36405278E+01
  3 248 304 2.90989990E+02 2.55599976E+01
  4 248 304 2.60989990E+02 1.45683472E+02
  2 248 305 3.00000000E+02 1.35808816E+01
  3 248 305 2.84059998E+02 2.55599976E+01
  4 248 305 2.54059998E+02 1.39779114E+02
  2 248 308 3.00000000E+02 1.27313269E+03
  3 248 308 2.83790009E+02 2.35619995E+03
  4 248 308 2.53790009E+02 1.28640674E+04
  2 248 314 3.02000000E+02 1.37086764E+01
  3 248 314 2.85910004E+02 2.55599976E+01
  4 248 314 2.55910004E+02 1.41355316E+02
  2 249 258 2.94000000E+02 1.17574386E+03
  3 249 258 2.79029999E+02 2.35619995E+03
  4 249 258 2.49029999E+02 1.24902148E+04
  2 249 305 3.05000000E+02 1.26947943E+01
  3 249 305 2.90100006E+02 2.55599976E+01
  4 249 305 2.60100006E+02 1.44925201E+02
  2 249 306 3.00000000E+02 1.37444995E+03
  3 249 306 2.82500000E+02 2.35619995E+03
  4 249 306 2.52500000E+02 1.27627490E+04
  2 249 307 3.01000000E+02 1.35481495E+03
  3 249 307 2.83750000E+02 2.35619995E+03
  4 249 307 2.53750000E+02 1.28609258E+04
  2 249 314 3.02000000E+02 1.41943226E+01
  3 249 314 2.85339996E+02 2.55599976E+01
  4 249 314 2.55339996E+02 1.40869675E+02
  2 250 258 3.00000000E+02 1.20794554E+03
  3 250 258 2.84619995E+02 2.35619995E+03
  4 250 258 2.54619995E+02 1.29292539E+04
  2 250 314 3.01000000E+02 1.47225584E+01
  3 250 314 2.83720001E+02 2.55599976E+01
  4 250 314 2.53720001E+02 1.39489441E+02
  2 251 258 3.04000000E+02 1.23936106E+03
  3 251 258 2.88220001E+02 2.35619995E+03
  4 251 258 2.58220001E+02 1.32119980E+04
  2 251 314 2.99000000E+02 1.61709688E+01
  3 251 314 2.80019989E+02 2.55599976E+01
  4 251 314 2.50019989E+02 1.36337036E+02
  2 252 258 3.04000000E+02 1.20166100E+03
  3 252 258 2.88700012E+02 2.35619995E+03
  4 252 258 2.58700012E+02 1.32496982E+04
  2 252 313 3.04000000E+02 1.60876752E+01
  3 252 313 2.85380005E+02 2.59199982E+01
  4 252 313 2.55380005E+02 1.42888321E+02
  2 252 314 2.98000000E+02 1.47262495E+03
  3 252 314 2.79250000E+02 2.35619995E+03
  4 252 314 2.49250000E+02 1.25074941E+04
  2 253 258 2.97000000E+02 1.14904054E+03
  3 253 258 2.82369995E+02 2.35619995E+03
  4 253 258 2.52369995E+02 1.27525391E+04
  2 253 259 3.05000000E+02 1.13647386E+03
  3 253 259 2.90529999E+02 2.35619995E+03
  4 253 259 2.60529999E+02 1.33934248E+04
  2 253 313 3.01000000E+02 1.55606478E+01
  3 253 313 2.82989990E+02 2.59199982E+01
  4 253 313 2.52989990E+02 1.40823334E+02
  2 254 259 3.00000000E+02 1.03908503E+03
  3 254 259 2.86769989E+02 2.35619995E+03
  4 254 259 2.56769989E+02 1.30981143E+04
  2 254 313 2.99000000E+02 1.44374321E+01
  3 254 313 2.82290009E+02 2.59199982E+01
  4 254 313 2.52290009E+02 1.40218567E+02
  2 255 259 3.01000000E+02 9.65257238E+02
  3 255 259 2.88709991E+02 2.35619995E+03
  4 255 259 2.58709991E+02 1.32504824E+04
  2 255 313 3.01000000E+02 1.45411078E+01
  3 255 313 2.84170013E+02 2.59199982E+01
  4 255 313 2.54170013E+02 1.41842896E+02
  2 256 258 2.97000000E+02 8.91429449E+02
  3 256 258 2.85649994E+02 2.35619995E+03
  4 256 258 2.55649994E+02 1.30101504E+04
  2 256 313 3.11000000E+02 1.22947026E+01
  3 256 313 2.96770020E+02 2.59199982E+01
  4 256 313 2.66770020E+02 1.52729294E+02
  2 256 314 2.99000000E+02 1.49990268E+01
  3 256 314 2.81640015E+02 2.59199982E+01
  4 256 314 2.51640015E+02 1.39656967E+02
  2 257 255 2.98000000E+02 1.11526892E+03
  3 257 255 2.83799988E+02 2.35619995E+03
  4 257 255 2.53799988E+02 1.28648496E+04
  2 257 256 3.02000000E+02 1.04222490E+03
  3 257 256 2.88730011E+02 2.35619995E+03
  4 257 256 2.58730011E+02 1.32520557E+04
  2 257 257 3.11000000E+02 9.10278282E+02
  3 257 257 2.99410004E+02 2.35619995E+03
  4 257 257 2.69410004E+02 1.40908613E+04
  2 257 314 3.14000000E+02 1.40918373E+01
  3 257 314 2.97690002E+02 2.59199982E+01
  4 257 314 2.67690002E+02 1.53524155E+02
  2 258 254 2.95000000E+02 1.05322165E+03
  3 258 254 2.81589996E+02 2.35619995E+03
  4 258 254 2.51589996E+02 1.26912783E+04
  2 258 314 3.31000000E+02 1.58025404E+01
  3 258 314 3.12710022E+02 2.59199982E+01
  4 258 314 2.82710022E+02 1.66501450E+02
  2 258 315 3.09000000E+02 1.52409457E+01
  3 258 315 2.91360016E+02 2.59199982E+01
  4 258 315 2.61360016E+02 1.48055054E+02
  2 259 253 2.93000000E+02 1.02258990E+03
  3 259 253 2.79980011E+02 2.35619995E+03
  4 259 253 2.49980011E+02 1.25648301E+04
  2 259 315 3.20000000E+02 1.52322973E+01
  3 259 315 3.02370026E+02 2.59199982E+01
  4 259 315 2.72370026E+02 1.57567688E+02
  2 259 316 2.99000000E+02 1.54051078E+01
  3 259 316 2.81170013E+02 2.59200134E+01
  4 259 316 2.51169998E+02 1.39250870E+02
  2 260 247 2.95000000E+02 9.79393863E+02
  3 260 247 2.82529999E+02 2.35619995E+03
  4 260 247 2.52529999E+02 1.27651055E+04
  2 260 248 2.96000000E+02 9.31483218E+02
  3 260 248 2.84140015E+02 2.35619995E+03
  4 260 248 2.54140015E+02 1.28915557E+04
  2 260 249 2.93000000E+02 9.18918928E+02
  3 260 249 2.81299988E+02 2.35619995E+03
  4 260 249 2.51299988E+02 1.26685010E+04
  2 260 252 2.94000000E+02 1.11605269E+03
  3 260 252 2.79790009E+02 2.35619995E+03
  4 260 252 2.49790009E+02 1.25499072E+04
  2 260 316 3.00000000E+02 1.72368099E+01
  3 260 316 2.80049988E+02 2.59199982E+01
  4 260 316 2.50049988E+02 1.38283188E+02
  2 261 245 2.94000000E+02 1.12155107E+03
  3 261 245 2.79720001E+02 2.35619995E+03
  4 261 245 2.49720001E+02 1.25444082E+04
  2 261 246 3.00000000E+02 1.05872003E+03
  3 261 246 2.86519989E+02 2.35619995E+03
  4 261 246 2.56519989E+02 1.30784785E+04
  2 261 249 3.03000000E+02 8.92213219E+02
  3 261 249 2.91640015E+02 2.35619995E+03
  4 261 249 2.61640015E+02 1.34806064E+04
  2 261 250 3.02000000E+02 9.47978343E+02
  3 261 250 2.89929993E+02 2.35619995E+03
  4 261 250 2.59929993E+02 1.33463008E+04
  2 261 251 3.00000000E+02 8.91429449E+02
  3 261 251 2.88649994E+02 2.35619995E+03
  4 261 251 2.58649994E+02 1.32457705E+04
  2 261 316 3.02000000E+02 1.68134320E+01
  3 261 316 2.82540009E+02 2.59199982E+01
  4 261 316 2.52540009E+02 1.40434570E+02
  2 261 317 2.97000000E+02 1.68393509E+01
  3 261 317 2.77510010E+02 2.59199982E+01
  4 261 317 2.47510010E+02 1.36088638E+02
  2 262 245 2.99000000E+02 1.14746821E+03
  3 262 245 2.84390015E+02 2.35619995E+03
  4 262 245 2.54390015E+02 1.29111904E+04
  2 262 317 3.04000000E+02 1.60942919E+01
  3 262 317 2.85109985E+02 2.55599976E+01
  4 262 317 2.55109985E+02 1.40673691E+02
  2 262 318 2.96000000E+02 1.56211078E+01
  3 262 318 2.77920013E+02 2.59199982E+01
  4 262 318 2.47920013E+02 1.36442886E+02
  2 263 245 3.01000000E+02 1.13411775E+03
  3 263 245 2.86559998E+02 2.35619995E+03
  4 263 245 2.56559998E+02 1.30816221E+04
  2 263 318 3.17000000E+02 1.60790267E+01
  3 263 318 2.98390015E+02 2.59199982E+01
  4 263 318 2.68390015E+02 1.54128967E+02
  2 263 319 3.05000000E+02 1.59667289E+01
  3 263 319 2.86519989E+02 2.59199982E+01
  4 263 319 2.56519989E+02 1.43873260E+02
  2 264 245 3.02000000E+02 1.25349769E+03
  3 264 245 2.86040009E+02 2.35619995E+03
  4 264 245 2.56040009E+02 1.30407822E+04
  2 264 319 3.07000000E+02 1.50796891E+03
  3 264 319 2.87799988E+02 2.35619995E+03
  4 264 319 2.57799988E+02 1.31790098E+04
  2 264 320 2.98000000E+02 1.69603236E+01
  3 264 320 2.78369995E+02 2.59199982E+01
  4 264 320 2.48369995E+02 1.36831665E+02
  2 264 325 3.01000000E+02 1.58472046E+01
  3 264 325 2.82399994E+02 2.55599976E+01
  4 264 325 2.52399994E+02 1.38364792E+02
  2 265 245 2.98000000E+02 1.23386269E+03
  3 265 245 2.82290009E+02 2.35619995E+03
  4 265 245 2.52290009E+02 1.27462568E+04
  2 265 246 3.07000000E+02 1.24014723E+03
  3 265 246 2.91209991E+02 2.35619995E+03
  4 265 246 2.61209991E+02 1.34468320E+04
  2 265 320 3.03000000E+02 1.63728099E+01
  3 265 320 2.84049988E+02 2.59199982E+01
  4 265 320 2.54049988E+02 1.41739197E+02
  2 265 321 2.98000000E+02 1.72368099E+01
  3 265 321 2.78049988E+02 2.59199982E+01
  4 265 321 2.48049988E+02 1.36555176E+02
  2 265 325 3.02000000E+02 1.51059688E+01
  3 265 325 2.84269989E+02 2.55599976E+01
  4 265 325 2.54269989E+02 1.39958023E+02
  2 266 246 3.01000000E+02 1.23543502E+03
  3 266 246 2.85269989E+02 2.35619995E+03
  4 266 246 2.55269989E+02 1.29803037E+04
  2 266 247 3.08000000E+02 1.25899606E+03
  3 266 247 2.91970001E+02 2.35619995E+03
  4 266 247 2.61970001E+02 1.35065234E+04
  2 266 321 3.03000000E+02 1.54723891E+03
  3 266 321 2.83299988E+02 2.35619995E+03
  4 266 321 2.53299988E+02 1.28255811E+04
  2 266 325 3.04000000E+02 1.56171740E+01
  3 266 325 2.85669983E+02 2.55599976E+01
  4 266 325 2.55669983E+02 1.41150818E+02
  2 266 326 3.09000000E+02 1.58301480E+01
  3 266 326 2.90420013E+02 2.55599976E+01
  4 266 326 2.60420013E+02 1.45197845E+02
  2 267 247 3.00000000E+02 1.28098716E+03
  3 267 247 2.83690002E+02 2.35619995E+03
  4 267 247 2.53690002E+02 1.28562119E+04
  2 267 248 3.04000000E+02 1.26685054E+03
  3 267 248 2.87869995E+02 2.35619995E+03
  4 267 248 2.57869995E+02 1.31845098E+04
  2 267 249 3.08000000E+02 1.25585379E+03
  3 267 249 2.92010010E+02 2.35619995E+03
  4 267 249 2.62010010E+02 1.35096660E+04
  1 267 321 3.04000000E+02 1.67907709E-02
  2 267 321 3.03980011E+02 1.57079993E+03
  3 267 321 2.83980011E+02 2.35619995E+03
  4 267 321 2.53980011E+02 1.28789902E+04
  2 267 322 2.98000000E+02 1.55195111E+03
  3 267 322 2.78239990E+02 2.35619995E+03
  4 267 322 2.48239990E+02 1.24281689E+04
  1 267 324 2.98000000E+02 2.68806143E-01
  2 267 324 2.97679993E+02 1.70399990E+01
  3 267 324 2.77679993E+02 2.55599976E+01
  4 267 324 2.47679993E+02 1.34343353E+02
  2 267 326 3.17000000E+02 1.52337636E+01
  3 267 326 2.99119995E+02 2.55599976E+01
  4 267 326 2.69119995E+02 1.52610229E+02
  2 267 327 2.97000000E+02 1.34871481E+01
  3 267 327 2.81170013E+02 2.55599976E+01
  4 267 327 2.51170013E+02 1.37316849E+02
  2 268 249 2.97000000E+02 1.36345320E+03
  3 268 249 2.79640015E+02 2.35619995E+03
  4 268 249 2.49640015E+02 1.25381260E+04
  2 268 250 2.98000000E+02 1.39329879E+03
  3 268 250 2.80260010E+02 2.35619995E+03
  4 268 250 2.50260010E+02 1.25868213E+04
  2 268 251 2.99000000E+02 1.39644106E+03
  3 268 251 2.81220001E+02 2.35619995E+03
  4 268 251 2.51220001E+02 1.26622188E+04
  2 268 252 3.00000000E+02 1.38780281E+03
  3 268 252 2.82329987E+02 2.35619995E+03
  4 268 252 2.52329987E+02 1.27493965E+04
  2 268 253 2.96000000E+02 1.43728099E+03
  3 268 253 2.77700012E+02 2.35619995E+03
  4 268 253 2.47700012E+02 1.23857578E+04
  2 268 254 2.97000000E+02 1.47419489E+03
  3 268 254 2.78230011E+02 2.35619995E+03
  4 268 254 2.48230011E+02 1.24273848E+04
  2 268 255 2.99000000E+02 1.48597780E+03
  3 268 255 2.80079987E+02 2.35619995E+03
  4 268 255 2.50079987E+02 1.25726816E+04
  2 268 256 3.02000000E+02 1.48126320E+03
  3 268 256 2.83140015E+02 2.35619995E+03
  4 268 256 2.53140015E+02 1.28130156E+04
  2 268 257 3.07000000E+02 1.47498105E+03
  3 268 257 2.88220001E+02 2.35619995E+03
  4 268 257 2.58220001E+02 1.32119980E+04
  2 268 322 3.00000000E+02 1.53545599E+03
  3 268 322 2.80450012E+02 2.35619995E+03
  4 268 322 2.50450012E+02 1.26017432E+04
  2 268 324 3.04000000E+02 1.67162352E+01
  3 268 324 2.84380005E+02 2.55599976E+01
  4 268 324 2.54380005E+02 1.40051758E+02
  2 268 327 3.08000000E+02 1.37512660E+01
  3 268 327 2.91860016E+02 2.55599976E+01
  4 268 327 2.61860016E+02 1.46424728E+02
  2 269 257 2.97000000E+02 1.50796891E+03
  3 269 257 2.77799988E+02 2.35619995E+03
  4 269 257 2.47799988E+02 1.23936104E+04
  2 269 258 3.00000000E+02 1.50482664E+03
  3 269 258 2.80839996E+02 2.35619995E+03
  4 269 258 2.50839996E+02 1.26323730E+04
  2 269 259 3.02000000E+02 1.43492489E+03
  3 269 259 2.83730011E+02 2.35619995E+03
  4 269 259 2.53730011E+02 1.28593555E+04
  2 269 322 3.00000000E+02 1.56844384E+03
  3 269 322 2.80029999E+02 2.35619995E+03
  4 269 322 2.50029999E+02 1.25687549E+04
  1 269 323 2.99000000E+02 1.17612300E-01
  2 269 323 2.98859985E+02 1.57079993E+03
  3 269 323 2.78859985E+02 2.35619995E+03
  4 269 323 2.48859985E+02 1.24768633E+04
  2 269 326 3.25000000E+02 1.38109122E+01
  3 269 326 3.08790009E+02 2.55599976E+01
  4 269 326 2.78790009E+02 1.60849075E+02
  2 269 327 3.05000000E+02 1.52933838E+01
  3 269 327 2.87050018E+02 2.55599976E+01
  4 269 327 2.57050018E+02 1.42326599E+02
  2 270 259 2.99000000E+02 1.50404047E+03
  3 270 259 2.79850006E+02 2.35619995E+03
  4 270 259 2.49850006E+02 1.25546191E+04
  2 270 260 3.00000000E+02 1.46948268E+03
  3 270 260 2.81290009E+02 2.35619995E+03
  4 270 260 2.51290009E+02 1.26677168E+04
  2 270 325 3.29000000E+02 1.37768249E+01
  3 270 325 3.12830017E+02 2.55599976E+01
  4 270 325 2.82830017E+02 1.64291168E+02
  2 270 326 3.13000000E+02 1.49952046E+01
  3 270 326 2.95399994E+02 2.55599976E+01
  4 270 326 2.65399994E+02 1.49440796E+02
  2 271 260 3.02000000E+02 1.50482664E+03
  3 271 260 2.82839996E+02 2.35619995E+03
  4 271 260 2.52839996E+02 1.27894531E+04
  2 271 325 3.18000000E+02 1.47055018E+01
  3 271 325 3.00740021E+02 2.55599976E+01
  4 271 325 2.70740021E+02 1.53990494E+02
  2 272 259 2.99000000E+02 1.50247053E+03
  3 272 259 2.79869995E+02 2.35619995E+03
  4 272 259 2.49869995E+02 1.25561895E+04
  2 272 324 3.21000000E+02 1.36660868E+01
  3 272 324 3.04959991E+02 2.55599976E+01
  4 272 324 2.74959991E+02 1.57585907E+02
  2 272 325 3.03000000E+02 1.39727943E+01
  3 272 325 2.86600006E+02 2.55599976E+01
  4 272 325 2.56600006E+02 1.41943207E+02
  2 273 259 2.98000000E+02 1.46555664E+03
  3 273 259 2.79339996E+02 2.35619995E+03
  4 273 259 2.49339996E+02 1.25145625E+04
  2 273 260 3.03000000E+02 1.48990385E+03
  3 273 260 2.84029999E+02 2.35619995E+03
  4 273 260 2.54029999E+02 1.28829160E+04
  2 273 324 3.11000000E+02 1.33763839E+01
  3 273 324 2.95300018E+02 2.55599976E+01
  4 273 324 2.65300018E+02 1.49355621E+02
  2 274 260 2.99000000E+02 1.41136385E+03
  3 274 260 2.81029999E+02 2.35619995E+03
  4 274 260 2.51029999E+02 1.26472949E+04
  2 274 324 3.15000000E+02 1.33934405E+01
  3 274 324 2.99279999E+02 2.55599976E+01
  4 274 324 2.69279999E+02 1.52746552E+02
  2 275 258 2.97000000E+02 1.33910839E+03
  3 275 258 2.79949982E+02 2.35619995E+03
  4 275 258 2.49949982E+02 1.25624707E+04
  2 275 259 3.00000000E+02 1.39408495E+03
  3 275 259 2.82250000E+02 2.35619995E+03
  4 275 259 2.52250000E+02 1.27431143E+04
  2 275 324 3.14000000E+02 1.39216764E+01
  3 275 324 2.97660004E+02 2.55599976E+01
  4 275 324 2.67660004E+02 1.51366318E+02
  2 276 253 2.95000000E+02 1.20637321E+03
  3 276 253 2.79640015E+02 2.35619995E+03
  4 276 253 2.49640015E+02 1.25381260E+04
  2 276 254 2.97000000E+02 1.17103165E+03
  3 276 254 2.82089996E+02 2.35619995E+03
  4 276 254 2.52089996E+02 1.27305479E+04
  2 276 255 2.96000000E+02 1.13961613E+03
  3 276 255 2.81489990E+02 2.35619995E+03
  4 276 255 2.51489990E+02 1.26834238E+04
  2 276 256 2.96000000E+02 1.13804619E+03
  3 276 256 2.81509979E+02 2.35619873E+03
  4 276 256 2.51509995E+02 1.26849941E+04
  2 276 257 2.97000000E+02 1.20244717E+03
  3 276 257 2.81690002E+02 2.35619995E+03
  4 276 257 2.51690002E+02 1.26991328E+04
  2 276 324 3.15000000E+02 1.49185018E+01
  3 276 324 2.97490021E+02 2.55599976E+01
  4 276 324 2.67490021E+02 1.51221497E+02
  2 277 251 2.96000000E+02 1.29119775E+03
  3 277 251 2.79559998E+02 2.35619995E+03
  4 277 251 2.49559998E+02 1.25318418E+04
  2 277 252 3.03000000E+02 1.27706112E+03
  3 277 252 2.86739990E+02 2.35619995E+03
  4 277 252 2.56739990E+02 1.30957578E+04
  2 277 324 3.14000000E+02 1.59068248E+01
  3 277 324 2.95330017E+02 2.55599976E+01
  4 277 324 2.65330017E+02 1.49381180E+02
  2 278 251 3.02000000E+02 1.32104333E+03
  3 278 251 2.85179993E+02 2.35619995E+03
  4 278 251 2.55179993E+02 1.29732363E+04
  2 278 324 3.06000000E+02 1.54212046E+01
  3 278 324 2.87899994E+02 2.55599976E+01
  4 278 324 2.57899994E+02 1.43050797E+02
  2 279 250 2.97000000E+02 1.35088891E+03
  3 279 250 2.79799988E+02 2.35619995E+03
  4 279 250 2.49799988E+02 1.25506904E+04
  2 279 324 3.02000000E+02 1.58472046E+01
  3 279 324 2.83399994E+02 2.55599976E+01
  4 279 324 2.53399994E+02 1.39216797E+02
  2 280 250 3.01000000E+02 1.33517995E+03
  3 280 250 2.84000000E+02 2.35619995E+03
  4 280 250 2.54000000E+02 1.28805605E+04
  2 280 323 3.11000000E+02 1.54041480E+01
  3 280 323 2.92920013E+02 2.55599976E+01
  4 280 323 2.62920013E+02 1.47327835E+02
  2 280 324 3.01000000E+02 1.69633225E+01
  3 280 324 2.81089996E+02 2.55599976E+01
  4 280 324 2.51089996E+02 1.37248672E+02
  2 281 250 3.04000000E+02 1.31711489E+03
  3 281 250 2.87230011E+02 2.35619995E+03
  4 281 250 2.57230011E+02 1.31342451E+04
  2 281 322 3.28000000E+02 1.53359994E+01
  3 281 322 3.10000000E+02 2.55599976E+01
  4 281 322 2.80000000E+02 1.61879990E+02
  2 281 323 3.08000000E+02 1.52593226E+01
  3 281 323 2.90089996E+02 2.55599976E+01
  4 281 323 2.60089996E+02 1.44916672E+02
  2 282 250 3.07000000E+02 1.29198391E+03
  3 282 250 2.90549988E+02 2.35619995E+03
  4 282 250 2.60549988E+02 1.33949951E+04
  2 282 322 3.17000000E+02 1.58386763E+01
  3 282 322 2.98410004E+02 2.55599976E+01
  4 282 322 2.68410004E+02 1.52005310E+02
  2 283 250 3.10000000E+02 1.31240268E+03
  3 283 250 2.93290009E+02 2.35619995E+03
  4 283 250 2.63290009E+02 1.36101973E+04
  2 283 321 3.10000000E+02 1.66225277E+01
  3 283 321 2.90489990E+02 2.55599976E+01
  4 283 321 2.60489990E+02 1.45257462E+02
  2 283 322 3.12000000E+02 1.65969687E+01
  3 283 322 2.92519989E+02 2.55599976E+01
  4 283 322 2.62519989E+02 1.46987015E+02
  2 284 249 3.01000000E+02 1.43728099E+03
  3 284 249 2.82700012E+02 2.35619995E+03
  4 284 249 2.52700012E+02 1.27784580E+04
  2 284 320 3.20000000E+02 1.68184971E+01
  3 284 320 3.00259979E+02 2.55599976E+01
  4 284 320 2.70259979E+02 1.53581497E+02
  2 284 321 3.22000000E+02 1.64095277E+01
  3 284 321 3.02739990E+02 2.55599976E+01
  4 284 321 2.72739990E+02 1.55694458E+02
  2 285 249 3.03000000E+02 1.42314437E+03
  3 285 249 2.84880005E+02 2.35619995E+03
  4 285 249 2.54880005E+02 1.29496748E+04
  1 285 319 3.26000000E+02 1.42811274E-01
  2 285 319 3.25829987E+02 1.70399990E+01
  3 285 319 3.05829987E+02 2.55599976E+01
  4 285 319 2.75829987E+02 1.58327133E+02
  1 285 320 3.34000000E+02 8.40820283E-03
  2 285 320 3.33989990E+02 1.70399990E+01
  3 285 320 3.13989990E+02 2.55599976E+01
  4 285 320 2.83989990E+02 1.65279465E+02
  2 286 249 3.03000000E+02 1.43414112E+03
  3 286 249 2.84739990E+02 2.35619995E+03
  4 286 249 2.54739990E+02 1.29386777E+04
  2 286 319 3.38000000E+02 1.62391173E+01
  3 286 319 3.18940002E+02 2.55599976E+01
  4 286 319 2.88940002E+02 1.69496872E+02
  2 287 249 3.03000000E+02 1.46084443E+03
  3 287 249 2.84399994E+02 2.35619995E+03
  4 287 249 2.54399994E+02 1.29119746E+04
  2 287 318 3.40000000E+02 1.64436150E+01
  3 287 318 3.20699982E+02 2.55599976E+01
  4 287 318 2.90699982E+02 1.70996384E+02
  2 287 319 3.46000000E+02 1.48077636E+01
  3 287 319 3.28619995E+02 2.55599976E+01
  4 287 319 2.98619995E+02 1.77744232E+02
  2 288 249 3.02000000E+02 1.41843216E+03
  3 288 249 2.83940002E+02 2.35619995E+03
  4 288 249 2.53940002E+02 1.28758467E+04
  2 288 317 3.41000000E+02 1.55830867E+01
  3 288 317 3.22709991E+02 2.55599976E+01
  4 288 317 2.92709991E+02 1.72708908E+02
  2 288 318 3.49000000E+02 1.40665018E+01
  3 288 318 3.32490021E+02 2.55599976E+01
  4 288 318 3.02490021E+02 1.81041489E+02
  2 289 249 3.01000000E+02 1.48440547E+03
  3 289 249 2.82100006E+02 2.35619995E+03
  4 289 249 2.52100006E+02 1.27313340E+04
  2 289 317 3.52000000E+02 1.40409428E+01
  3 289 317 3.35520020E+02 2.55599976E+01
  4 289 317 3.05520020E+02 1.83623047E+02
  2 290 249 3.01000000E+02 1.48204937E+03
  3 290 249 2.82130005E+02 2.35619995E+03
  4 290 249 2.52130005E+02 1.27336895E+04
  2 290 316 3.60000000E+02 1.45521480E+01
  3 290 316 3.42920013E+02 2.55599976E+01
  4 290 316 3.12920013E+02 1.89927841E+02
  2 290 317 3.61000000E+02 1.50292659E+01
  3 290 317 3.43360016E+02 2.55599976E+01
  4 290 317 3.13360016E+02 1.90302734E+02
  2 291 249 3.01000000E+02 1.42550287E+03
  3 291 249 2.82849976E+02 2.35619873E+03
  4 291 249 2.52849991E+02 1.27902383E+04
  2 291 315 3.62000000E+02 1.45010301E+01
  3 291 315 3.44980011E+02 2.55599976E+01
  4 291 315 3.14980011E+02 1.91682953E+02
  2 291 316 3.69000000E+02 1.54637942E+01
  3 291 316 3.50850006E+02 2.55599976E+01
  4 291 316 3.20850006E+02 1.96684189E+02
  2 292 249 3.00000000E+02 1.40822397E+03
  3 292 249 2.82069977E+02 2.35619873E+03
  4 292 249 2.52069992E+02 1.27289766E+04
  2 292 250 3.16000000E+02 1.42628664E+03
  3 292 250 2.97839996E+02 2.35619995E+03
  4 292 250 2.67839996E+02 1.39675518E+04
  2 292 314 3.67000000E+02 1.43732353E+01
  3 292 314 3.50130005E+02 2.55599976E+01
  4 292 314 3.20130005E+02 1.96070755E+02
  2 292 315 3.68000000E+02 1.55575017E+01
  3 292 315 3.49740021E+02 2.55599976E+01
  4 292 315 3.19740021E+02 1.95738495E+02
  2 293 250 3.12000000E+02 1.39958333E+03
  3 293 250 2.94179993E+02 2.35619995E+03
  4 293 250 2.64179993E+02 1.36800967E+04
  2 293 314 3.69000000E+02 1.55319428E+01
  3 293 314 3.50770020E+02 2.55599976E+01
  4 293 314 3.20770020E+02 1.96616058E+02
  2 294 250 3.04000000E+02 1.37994833E+03
  3 294 250 2.86429993E+02 2.35619995E+03
  4 294 250 2.56429993E+02 1.30714111E+04