# File generated by Flopy version 3.8.2 on 12/20/2024 at 20:26:36.
BEGIN options
  SAVE_FLOWS
END options

BEGIN dimensions
  MAXBOUND  9432
END dimensions

BEGIN period  1
  2 72 454 3.80000000E+02 7.90570599E+02
  3 72 454 3.69690002E+02 1.51826392E+03
  4 72 454 3.39690002E+02 6.31825537E+03
  2 73 452 3.80000000E+02 1.08118845E+03
  3 73 452 3.65899994E+02 1.51826392E+03
  4 73 452 3.35899994E+02 6.22235156E+03
  2 73 453 3.83000000E+02 9.95307225E+02
  3 73 453 3.70019989E+02 1.51826392E+03
  4 73 453 3.40019989E+02 6.32660547E+03
  2 74 453 3.85000000E+02 1.05511753E+03
  3 74 453 3.71239990E+02 1.51826392E+03
  4 74 453 3.41239990E+02 6.35747656E+03
  2 75 453 3.76000000E+02 1.10342630E+03
  3 75 453 3.61609985E+02 1.51826392E+03
  4 75 453 3.31609985E+02 6.11379492E+03
  2 75 454 3.90000000E+02 9.51599064E+02
  3 75 454 3.77589996E+02 1.51826392E+03
  4 75 454 3.47589996E+02 6.51815967E+03
  2 76 454 3.85000000E+02 1.09575784E+03
  3 76 454 3.70709991E+02 1.51826392E+03
  4 76 454 3.40709991E+02 6.34406543E+03
  2 77 454 3.80000000E+02 1.06125324E+03
  3 77 454 3.66159973E+02 1.51826392E+03
  4 77 454 3.36159973E+02 6.22892969E+03
  2 77 455 3.95000000E+02 1.00757631E+03
  3 77 455 3.81859985E+02 1.51826392E+03
  4 77 455 3.51859985E+02 6.62620947E+03
  2 78 455 3.79000000E+02 9.38562434E+02
  3 78 455 3.66760010E+02 1.51826392E+03
  4 78 455 3.36760010E+02 6.24411377E+03
  2 78 456 3.93000000E+02 8.94854274E+02
  3 78 456 3.81330017E+02 1.51826392E+03
  4 78 456 3.51330017E+02 6.61279883E+03
  2 79 456 3.82000000E+02 7.94403663E+02
  3 79 456 3.71640015E+02 1.51826392E+03
  4 79 456 3.41640015E+02 6.36759912E+03
  2 80 447 3.73000000E+02 8.85653048E+02
  3 80 447 3.61450012E+02 1.51826392E+03
  4 80 447 3.31450012E+02 6.10974707E+03
  2 80 448 3.77000000E+02 7.58363970E+02
  3 80 448 3.67110016E+02 1.51826392E+03
  4 80 448 3.37110016E+02 6.25297021E+03
  2 80 449 3.69000000E+02 6.57148150E+02
  3 80 449 3.60429993E+02 1.51826392E+03
  4 80 449 3.30429993E+02 6.08393652E+03
  2 80 455 3.68000000E+02 6.44111521E+02
  3 80 455 3.59600006E+02 1.51826392E+03
  4 80 455 3.29600006E+02 6.06293359E+03
  2 81 446 3.72000000E+02 9.28593660E+02
  3 81 446 3.59890015E+02 1.51826392E+03
  4 81 446 3.29890015E+02 6.07027246E+03
  2 81 449 3.94000000E+02 6.93953052E+02
  3 81 449 3.84950012E+02 1.51826392E+03
  4 81 449 3.54950012E+02 6.70440039E+03
  2 81 450 3.88000000E+02 6.70949988E+02
  3 81 450 3.79250000E+02 1.51826392E+03
  4 81 450 3.49250000E+02 6.56016553E+03
  2 81 451 3.82000000E+02 5.78933054E+02
  3 81 451 3.74450012E+02 1.51826392E+03
  4 81 451 3.44450012E+02 6.43870459E+03
  2 81 452 3.74000000E+02 5.25258459E+02
  3 81 452 3.67149994E+02 1.51826392E+03
  4 81 452 3.37149994E+02 6.25398193E+03
  2 81 453 3.73000000E+02 5.14522136E+02
  3 81 453 3.66290009E+02 1.51826392E+03
  4 81 453 3.36290009E+02 6.23222070E+03
  2 81 454 3.76000000E+02 5.03020604E+02
  3 81 454 3.69440002E+02 1.51826392E+03
  4 81 454 3.39440002E+02 6.31192871E+03
  2 82 446 3.77000000E+02 9.84570902E+02
  3 82 446 3.64160004E+02 1.51826392E+03
  4 82 446 3.34160004E+02 6.17832178E+03
  2 83 446 3.78000000E+02 1.16476937E+03
  3 83 446 3.62809998E+02 1.51826392E+03
  4 83 446 3.32809998E+02 6.14416064E+03
  2 83 447 3.90000000E+02 1.03517998E+03
  3 83 447 3.76500000E+02 1.51826392E+03
  4 83 447 3.46500000E+02 6.49057764E+03
  2 84 447 3.81000000E+02 1.22381212E+03
  3 84 447 3.65040009E+02 1.51826392E+03
  4 84 447 3.35040009E+02 6.20058984E+03
  2 84 448 3.91000000E+02 1.08195366E+03
  3 84 448 3.76890015E+02 1.51826392E+03
  4 84 448 3.46890015E+02 6.50044727E+03
  2 85 448 3.82000000E+02 1.21154304E+03
  3 85 448 3.66200012E+02 1.51826392E+03
  4 85 448 3.36200012E+02 6.22994287E+03
  2 85 449 3.91000000E+02 1.02751151E+03
  3 85 449 3.77600006E+02 1.51826392E+03
  4 85 449 3.47600006E+02 6.51841260E+03
  2 86 449 3.80000000E+02 1.05665029E+03
  3 86 449 3.66220001E+02 1.51826392E+03
  4 86 449 3.36220001E+02 6.23044873E+03
  2 86 450 3.93000000E+02 1.03517998E+03
  3 86 450 3.79500000E+02 1.51826392E+03
  4 86 450 3.49500000E+02 6.56649072E+03
  2 86 451 3.92000000E+02 1.06891937E+03
  3 86 451 3.78059998E+02 1.51826392E+03
  4 86 451 3.48059998E+02 6.53005273E+03
  2 86 452 3.89000000E+02 1.09805814E+03
  3 86 452 3.74679993E+02 1.51826392E+03
  4 86 452 3.44679993E+02 6.44452344E+03
  2 86 453 3.86000000E+02 1.08808937E+03
  3 86 453 3.71809998E+02 1.51826392E+03
  4 86 453 3.41809998E+02 6.37190039E+03
  2 86 454 3.80000000E+02 9.88403966E+02
  3 86 454 3.67110016E+02 1.51826392E+03
  4 86 454 3.37110016E+02 6.25297021E+03
  2 87 449 3.79000000E+02 1.12259396E+03
  3 87 449 3.64360016E+02 1.51826392E+03
  4 87 449 3.34360016E+02 6.18338330E+03
  2 87 450 3.77000000E+02 1.19697366E+03
  3 87 450 3.61390015E+02 1.51826392E+03
  4 87 450 3.31390015E+02 6.10822900E+03
  2 87 454 3.84000000E+02 9.04823048E+02
  3 87 454 3.72200012E+02 1.51826392E+03
  4 87 454 3.42200012E+02 6.38176953E+03
  2 88 453 3.80000000E+02 1.08808937E+03
  3 88 453 3.65809998E+02 1.51826392E+03
  4 88 453 3.35809998E+02 6.22007422E+03
  2 89 453 3.90000000E+02 1.16246906E+03
  3 89 453 3.74839996E+02 1.51826392E+03
  4 89 453 3.44839996E+02 6.44857275E+03
  2 90 439 3.75000000E+02 8.91788759E+02
  3 90 439 3.63369995E+02 1.51826392E+03
  4 90 439 3.33369995E+02 6.15833105E+03
  2 90 453 3.89000000E+02 1.08272121E+03
  3 90 453 3.74880005E+02 1.51826392E+03
  4 90 453 3.44880005E+02 6.44958496E+03
  2 91 438 3.76000000E+02 9.60800289E+02
  3 91 438 3.63470001E+02 1.51826392E+03
  4 91 438 3.33470001E+02 6.16086182E+03
  2 91 439 3.81000000E+02 9.05590597E+02
  3 91 439 3.69190002E+02 1.51826392E+03
  4 91 439 3.39190002E+02 6.30560303E+03
  2 91 453 3.83000000E+02 1.00757397E+03
  3 91 453 3.69860016E+02 1.51826392E+03
  4 91 453 3.39860016E+02 6.32255762E+03
  2 91 454 4.00000000E+02 9.92239370E+02
  3 91 454 3.87059998E+02 1.51826392E+03
  4 91 454 3.57059998E+02 6.75779248E+03
  2 92 438 3.77000000E+02 9.37794886E+02
  3 92 438 3.64770020E+02 1.51826392E+03
  4 92 438 3.34770020E+02 6.19375781E+03
  2 92 439 3.87000000E+02 8.62649985E+02
  3 92 439 3.75750000E+02 1.51826392E+03
  4 92 439 3.45750000E+02 6.47159961E+03
  2 92 440 3.85000000E+02 8.37344275E+02
  3 92 440 3.74080017E+02 1.51826392E+03
  4 92 440 3.44080017E+02 6.42934180E+03
  2 92 454 3.90000000E+02 9.68468757E+02
  3 92 454 3.77369995E+02 1.51826392E+03
  4 92 454 3.47369995E+02 6.51259326E+03
  2 93 438 3.81000000E+02 1.00757397E+03
  3 93 438 3.67860016E+02 1.51826392E+03
  4 93 438 3.37860016E+02 6.27194873E+03
  2 93 440 3.93000000E+02 7.84434888E+02
  3 93 440 3.82770020E+02 1.51826392E+03
  4 93 440 3.52770020E+02 6.64923730E+03
  2 93 441 3.84000000E+02 7.05454583E+02
  3 93 441 3.74800018E+02 1.51826392E+03
  4 93 441 3.44800018E+02 6.44756104E+03
  2 93 451 3.85000000E+02 1.30586028E+03
  3 93 451 3.67970001E+02 1.51826392E+03
  4 93 451 3.37970001E+02 6.27473145E+03
  2 93 452 3.92000000E+02 1.19007274E+03
  3 93 452 3.76480011E+02 1.51826392E+03
  4 93 452 3.46480011E+02 6.49007275E+03
  2 93 453 3.94000000E+02 1.09575784E+03
  3 93 453 3.79709991E+02 1.51826392E+03
  4 93 453 3.49709991E+02 6.57180469E+03
  2 94 437 3.78000000E+02 1.34956844E+03
  3 94 437 3.60399994E+02 1.51826392E+03
  4 94 437 3.30399994E+02 6.08317725E+03
  2 94 438 3.87000000E+02 1.16476937E+03
  3 94 438 3.71809998E+02 1.51826392E+03
  4 94 438 3.41809998E+02 6.37190039E+03
  2 94 441 3.89000000E+02 7.45329680E+02
  3 94 441 3.79279999E+02 1.51826392E+03
  4 94 441 3.49279999E+02 6.56092432E+03
  2 94 442 3.73000000E+02 8.71083661E+02
  3 94 442 3.61640015E+02 1.51826392E+03
  4 94 442 3.31640015E+02 6.11455518E+03
  2 94 450 3.82000000E+02 1.45998783E+03
  3 94 450 3.62959991E+02 1.51826392E+03
  4 94 450 3.32959991E+02 6.14795654E+03
  2 94 451 3.89000000E+02 1.39864243E+03
  3 94 451 3.70760010E+02 1.51826392E+03
  4 94 451 3.40760010E+02 6.34533105E+03
  2 94 452 3.98000000E+02 1.28055457E+03
  3 94 452 3.81300018E+02 1.51826392E+03
  4 94 452 3.51300018E+02 6.61204004E+03
  2 95 438 3.88000000E+02 1.30892814E+03
  3 95 438 3.70929993E+02 1.51826392E+03
  4 95 438 3.40929993E+02 6.34963232E+03
  2 95 441 3.89000000E+02 7.85202437E+02
  3 95 441 3.78760010E+02 1.51826392E+03
  4 95 441 3.48760010E+02 6.54776611E+03
  2 95 452 3.84000000E+02 1.36950365E+03
  3 95 452 3.66140015E+02 1.51826392E+03
  4 95 452 3.36140015E+02 6.22842480E+03
  2 95 453 3.94000000E+02 1.19927396E+03
  3 95 453 3.78360016E+02 1.51826392E+03
  4 95 453 3.48360016E+02 6.53764502E+03
  2 96 438 3.86000000E+02 1.37487181E+03
  3 96 438 3.68070007E+02 1.51826392E+03
  4 96 438 3.38070007E+02 6.27726221E+03
  2 96 441 3.82000000E+02 6.77850907E+02
  3 96 441 3.73160004E+02 1.51826392E+03
  4 96 441 3.43160004E+02 6.40606152E+03
  2 96 453 3.81000000E+02 1.26291967E+03
  3 96 453 3.64529999E+02 1.51826392E+03
  4 96 453 3.34529999E+02 6.18768408E+03
  2 97 437 3.78000000E+02 1.34189998E+03
  3 97 437 3.60500000E+02 1.51826392E+03
  4 97 437 3.30500000E+02 6.08570801E+03
  2 97 441 3.90000000E+02 6.64049069E+02
  3 97 441 3.81339996E+02 1.51826392E+03
  4 97 441 3.51339996E+02 6.61305176E+03
  2 97 452 3.89000000E+02 1.46535365E+03
  3 97 452 3.69890015E+02 1.51826392E+03
  4 97 452 3.39890015E+02 6.32331641E+03
  2 98 437 3.77000000E+02 1.07351998E+03
  3 98 437 3.63000000E+02 1.51826392E+03
  4 98 437 3.33000000E+02 6.14896875E+03
  2 98 441 4.05000000E+02 6.06539070E+02
  3 98 441 3.97089996E+02 1.51826392E+03
  4 98 441 3.67089996E+02 7.01159521E+03
  2 98 442 3.89000000E+02 7.27692438E+02
  3 98 442 3.79510010E+02 1.51826392E+03
  4 98 442 3.49510010E+02 6.56674414E+03
  2 98 445 3.73000000E+02 9.99140289E+02
  3 98 445 3.59970001E+02 1.51826392E+03
  4 98 445 3.29970001E+02 6.07229639E+03
  2 98 451 3.80000000E+02 1.47455488E+03
  3 98 451 3.60770020E+02 1.51826392E+03
  4 98 451 3.30770020E+02 6.09254053E+03
  2 98 452 3.96000000E+02 1.49756028E+03
  3 98 452 3.76470001E+02 1.51826392E+03
  4 98 452 3.46470001E+02 6.48981934E+03
  2 99 429 3.73000000E+02 8.54213968E+02
  3 99 429 3.61860016E+02 1.51826392E+03
  4 99 429 3.31860016E+02 6.12012207E+03
  2 99 430 3.76000000E+02 7.33060600E+02
  3 99 430 3.66440002E+02 1.51826392E+03
  4 99 430 3.36440002E+02 6.23601562E+03
  2 99 431 3.73000000E+02 6.77083358E+02
  3 99 431 3.64170013E+02 1.51826392E+03
  4 99 431 3.34170013E+02 6.17857520E+03
  2 99 432 3.71000000E+02 6.90119988E+02
  3 99 432 3.62000000E+02 1.51826392E+03
  4 99 432 3.32000000E+02 6.12366455E+03
  2 99 435 3.73000000E+02 9.24760596E+02
  3 99 435 3.60940002E+02 1.51826392E+03
  4 99 435 3.30940002E+02 6.09684180E+03
  2 99 436 3.74000000E+02 8.00539373E+02
  3 99 436 3.63559998E+02 1.51826392E+03
  4 99 436 3.33559998E+02 6.16313916E+03
  2 99 442 3.94000000E+02 8.01304582E+02
  3 99 442 3.83550018E+02 1.51826392E+03
  4 99 442 3.53550018E+02 6.66897412E+03
  2 99 443 3.84000000E+02 9.29361209E+02
  3 99 443 3.71880005E+02 1.51826392E+03
  4 99 443 3.41880005E+02 6.37367188E+03
  2 99 444 3.82000000E+02 1.03364488E+03
  3 99 444 3.68520020E+02 1.51826392E+03
  4 99 444 3.38520020E+02 6.28864941E+03
  2 99 445 3.85000000E+02 1.02214335E+03
  3 99 445 3.71670013E+02 1.51826392E+03
  4 99 445 3.41670013E+02 6.36835840E+03
  2 99 446 3.83000000E+02 1.01217458E+03
  3 99 446 3.69800018E+02 1.51826392E+03
  4 99 446 3.39800018E+02 6.32103906E+03
  2 99 447 3.74000000E+02 1.00987427E+03
  3 99 447 3.60830017E+02 1.51826392E+03
  4 99 447 3.30830017E+02 6.09405859E+03
  2 99 452 3.92000000E+02 1.48452365E+03
  3 99 452 3.72640015E+02 1.51826392E+03
  4 99 452 3.42640015E+02 6.39290332E+03
  2 100 428 3.71000000E+02 8.50380904E+02
  3 100 428 3.59910004E+02 1.51826392E+03
  4 100 428 3.29910004E+02 6.07077832E+03
  2 100 432 3.86000000E+02 6.60981214E+02
  3 100 432 3.77380005E+02 1.51826392E+03
  4 100 432 3.47380005E+02 6.51284619E+03
  2 100 433 3.69000000E+02 6.70182439E+02
  3 100 433 3.60260010E+02 1.51826392E+03
  4 100 433 3.30260010E+02 6.07963477E+03
  2 100 434 3.71000000E+02 6.54080295E+02
  3 100 434 3.62470001E+02 1.51826392E+03
  4 100 434 3.32470001E+02 6.13555762E+03
  2 100 447 4.00000000E+02 1.06201845E+03
  3 100 447 3.86149994E+02 1.51826392E+03
  4 100 447 3.56149994E+02 6.73476562E+03
  2 100 448 3.91000000E+02 9.77669983E+02
  3 100 448 3.78250000E+02 1.51826392E+03
  4 100 448 3.48250000E+02 6.53486084E+03
  2 100 449 3.74000000E+02 1.05511519E+03
  3 100 449 3.60240021E+02 1.51826392E+03
  4 100 449 3.30240021E+02 6.07912891E+03
  2 100 451 3.81000000E+02 1.33193120E+03
  3 100 451 3.63630005E+02 1.51826392E+03
  4 100 451 3.33630005E+02 6.16491064E+03
  2 101 428 3.83000000E+02 8.97154580E+02
  3 101 428 3.71300018E+02 1.51826392E+03
  4 101 428 3.41300018E+02 6.35899561E+03
  2 101 449 3.97000000E+02 1.09652304E+03
  3 101 449 3.82700012E+02 1.51826392E+03
  4 101 449 3.52700012E+02 6.64746533E+03
  2 101 450 3.76000000E+02 1.04821427E+03
  3 101 450 3.62330017E+02 1.51826392E+03
  4 101 450 3.32330017E+02 6.13201514E+03
  2 102 427 3.74000000E+02 1.00067305E+03
  3 102 427 3.60950012E+02 1.51826392E+03
  4 102 427 3.30950012E+02 6.09709521E+03
  2 102 428 3.87000000E+02 9.67701208E+02
  3 102 428 3.74380005E+02 1.51826392E+03
  4 102 428 3.44380005E+02 6.43693311E+03
  2 102 441 3.93000000E+02 1.21767875E+03
  3 102 441 3.77119995E+02 1.51826392E+03
  4 102 441 3.47119995E+02 6.50626660E+03
  2 102 442 3.85000000E+02 1.43698243E+03
  3 102 442 3.66260010E+02 1.51826392E+03
  4 102 442 3.36260010E+02 6.23146143E+03
  2 102 443 3.79000000E+02 1.49065936E+03
  3 102 443 3.59559998E+02 1.51826392E+03
  4 102 443 3.29559998E+02 6.06192188E+03
  2 102 444 3.88000000E+02 1.47378967E+03
  3 102 444 3.68779999E+02 1.51826392E+03
  4 102 444 3.38779999E+02 6.29522803E+03
  2 103 428 3.80000000E+02 1.08195366E+03
  3 103 428 3.65890015E+02 1.51826392E+03
  4 103 428 3.35890015E+02 6.22209912E+03
  2 103 429 3.84000000E+02 1.02904427E+03
  3 103 429 3.70580017E+02 1.51826392E+03
  4 103 429 3.40580017E+02 6.34077637E+03
  2 103 438 3.97000000E+02 9.50831515E+02
  3 103 438 3.84600006E+02 1.51826392E+03
  4 103 438 3.54600006E+02 6.69554346E+03
  2 103 439 3.79000000E+02 9.66168451E+02
  3 103 439 3.66399994E+02 1.51826392E+03
  4 103 439 3.36399994E+02 6.23500391E+03
  2 103 440 3.83000000E+02 1.17933875E+03
  3 103 440 3.67619995E+02 1.51826392E+03
  4 103 440 3.37619995E+02 6.26587500E+03
  2 103 441 3.81000000E+02 1.43544967E+03
  3 103 441 3.62279999E+02 1.51826392E+03
  4 103 441 3.32279999E+02 6.13074951E+03
  2 103 444 3.84000000E+02 1.46228814E+03
  3 103 444 3.64929993E+02 1.51826392E+03
  4 103 444 3.34929993E+02 6.19780615E+03
  2 103 445 3.93000000E+02 1.48912426E+03
  3 103 445 3.73580017E+02 1.51826392E+03
  4 103 445 3.43580017E+02 6.41668945E+03
  2 104 429 3.75000000E+02 1.12872967E+03
  3 104 429 3.60279999E+02 1.51826392E+03
  4 104 429 3.30279999E+02 6.08014062E+03
  2 104 430 3.85000000E+02 1.10879213E+03
  3 104 430 3.70540009E+02 1.51826392E+03
  4 104 430 3.40540009E+02 6.33976416E+03
  2 104 431 3.89000000E+02 1.10495906E+03
  3 104 431 3.74589996E+02 1.51826392E+03
  4 104 431 3.44589996E+02 6.44224609E+03
  2 104 432 3.86000000E+02 1.02444366E+03
  3 104 432 3.72640015E+02 1.51826392E+03
  4 104 432 3.42640015E+02 6.39290332E+03
  2 104 433 3.84000000E+02 1.05971814E+03
  3 104 433 3.70179993E+02 1.51826392E+03
  4 104 433 3.40179993E+02 6.33065430E+03
  2 104 434 3.92000000E+02 1.10649182E+03
  3 104 434 3.77570007E+02 1.51826392E+03
  4 104 434 3.47570007E+02 6.51765381E+03
  2 104 435 3.88000000E+02 1.06968458E+03
  3 104 435 3.74050018E+02 1.51826392E+03
  4 104 435 3.44050018E+02 6.42858301E+03
  2 104 436 3.86000000E+02 1.05358243E+03
  3 104 436 3.72260010E+02 1.51826392E+03
  4 104 436 3.42260010E+02 6.38328760E+03
  2 104 438 3.92000000E+02 1.01370968E+03
  3 104 438 3.78779999E+02 1.51826392E+03
  4 104 438 3.48779999E+02 6.54827197E+03
  2 104 445 3.83000000E+02 1.47532242E+03
  3 104 445 3.63760010E+02 1.51826392E+03
  4 104 445 3.33760010E+02 6.16820020E+03
  2 104 446 3.89000000E+02 1.49602518E+03
  3 104 446 3.69490021E+02 1.51826392E+03
  4 104 446 3.39490021E+02 6.31319482E+03
  2 104 447 3.92000000E+02 1.45308457E+03
  3 104 447 3.73050018E+02 1.51826392E+03
  4 104 447 3.43050018E+02 6.40327832E+03
  2 105 434 3.77000000E+02 1.14099875E+03
  3 105 434 3.62119995E+02 1.51826392E+03
  4 105 434 3.32119995E+02 6.12670068E+03
  2 105 436 3.78000000E+02 1.12719458E+03
  3 105 436 3.63300018E+02 1.51826392E+03
  4 105 436 3.33300018E+02 6.15656055E+03
  2 105 437 3.87000000E+02 1.13256274E+03
  3 105 437 3.72230011E+02 1.51826392E+03
  4 105 437 3.42230011E+02 6.38252881E+03
  2 105 438 3.85000000E+02 1.05818305E+03
  3 105 438 3.71200012E+02 1.51826392E+03
  4 105 438 3.41200012E+02 6.35646533E+03
  2 105 447 3.87000000E+02 1.43391457E+03
  3 105 447 3.68300018E+02 1.51826392E+03
  4 105 447 3.38300018E+02 6.28308252E+03
  2 106 437 3.76000000E+02 1.17627090E+03
  3 106 437 3.60660004E+02 1.51826392E+03
  4 106 437 3.30660004E+02 6.08975635E+03
  2 106 438 3.75000000E+02 1.16476937E+03
  3 106 438 3.59809998E+02 1.51826392E+03
  4 106 438 3.29809998E+02 6.06824756E+03
  2 106 447 3.85000000E+02 1.40631089E+03
  3 106 447 3.66660004E+02 1.51826392E+03
  4 106 447 3.36660004E+02 6.24158301E+03
  2 107 447 3.82000000E+02 1.36413783E+03
  3 107 447 3.64209991E+02 1.51826392E+03
  4 107 447 3.34209991E+02 6.17958691E+03
  2 107 448 3.82000000E+02 1.42088028E+03
  3 107 448 3.63470001E+02 1.51826392E+03
  4 107 448 3.33470001E+02 6.16086182E+03
  2 107 449 3.80000000E+02 1.46842151E+03
  3 107 449 3.60850006E+02 1.51826392E+03
  4 107 449 3.30850006E+02 6.09456445E+03
  2 107 450 3.82000000E+02 1.45231936E+03
  3 107 450 3.63059998E+02 1.51826392E+03
  4 107 450 3.33059998E+02 6.15048682E+03
  2 107 451 3.89000000E+02 1.50446120E+03
  3 107 451 3.69380005E+02 1.51826392E+03
  4 107 451 3.39380005E+02 6.31041113E+03
  2 107 452 3.90000000E+02 1.44848396E+03
  3 107 452 3.71110016E+02 1.51826392E+03
  4 107 452 3.41110016E+02 6.35418799E+03
  2 108 452 3.79000000E+02 1.48145814E+03
  3 108 452 3.59679993E+02 1.51826392E+03
  4 108 452 3.29679993E+02 6.06495801E+03
  2 108 453 3.87000000E+02 1.44311814E+03
  3 108 453 3.68179993E+02 1.51826392E+03
  4 108 453 3.38179993E+02 6.28004541E+03
  2 108 454 4.02000000E+02 1.48145814E+03
  3 108 454 3.82679993E+02 1.51826392E+03
  4 108 454 3.52679993E+02 6.64695898E+03
  2 109 454 3.85000000E+02 1.44465089E+03
  3 109 454 3.66160004E+02 1.51826392E+03
  4 109 454 3.36160004E+02 6.22893066E+03
  1 110 454 3.88000000E+02 7.54431125E-01
  2 110 454 3.87990021E+02 1.53359998E+03
  3 110 454 3.67990021E+02 1.51826392E+03
  4 110 454 3.37990021E+02 6.27523828E+03
  2 111 408 3.70000000E+02 7.56831212E+02
  3 111 408 3.60130005E+02 1.51826392E+03
  4 111 408 3.30130005E+02 6.07634521E+03
  2 111 409 3.76000000E+02 6.30309682E+02
  3 111 409 3.67779999E+02 1.51826392E+03
  4 111 409 3.37779999E+02 6.26992383E+03
  2 111 410 3.70000000E+02 6.21873666E+02
  3 111 410 3.61890015E+02 1.51826392E+03
  4 111 410 3.31890015E+02 6.12088135E+03
  2 111 453 3.85000000E+02 1.50522875E+03
  3 111 453 3.65369995E+02 1.51826392E+03
  4 111 453 3.35369995E+02 6.20893994E+03
  2 112 408 3.82000000E+02 8.18941824E+02
  3 112 408 3.71320007E+02 1.51826392E+03
  4 112 408 3.41320007E+02 6.35950146E+03
  2 112 410 3.83000000E+02 6.36443053E+02
  3 112 410 3.74700012E+02 1.51826392E+03
  4 112 410 3.44700012E+02 6.44503027E+03
  2 112 411 3.74000000E+02 6.52545197E+02
  3 112 411 3.65490021E+02 1.51826392E+03
  4 112 411 3.35490021E+02 6.21197705E+03
  2 112 452 3.77000000E+02 1.37333906E+03
  3 112 452 3.59089996E+02 1.51826392E+03
  4 112 452 3.29089996E+02 6.05002832E+03
  2 113 408 3.85000000E+02 8.38879372E+02
  3 113 408 3.74059998E+02 1.51826392E+03
  4 113 408 3.44059998E+02 6.42883545E+03
  2 113 410 3.83000000E+02 7.15423358E+02
  3 113 410 3.73670013E+02 1.51826392E+03
  4 113 410 3.43670013E+02 6.41896680E+03
  2 113 411 3.71000000E+02 7.19258762E+02
  3 113 411 3.61619995E+02 1.51826392E+03
  4 113 411 3.31619995E+02 6.11404834E+03
  2 113 449 3.80000000E+02 1.12029366E+03
  3 113 449 3.65390015E+02 1.51826392E+03
  4 113 449 3.35390015E+02 6.20944678E+03
  2 113 450 3.88000000E+02 1.06968458E+03
  3 113 450 3.74050018E+02 1.51826392E+03
  4 113 450 3.44050018E+02 6.42858301E+03
  2 113 451 3.90000000E+02 1.08808937E+03
  3 113 451 3.75809998E+02 1.51826392E+03
  4 113 451 3.45809998E+02 6.47311768E+03
  2 114 407 3.73000000E+02 1.06355121E+03
  3 114 407 3.59130005E+02 1.51826392E+03
  4 114 407 3.29130005E+02 6.05104053E+03
  2 114 408 3.85000000E+02 8.56516614E+02
  3 114 408 3.73829987E+02 1.51826392E+03
  4 114 408 3.43829987E+02 6.42301465E+03
  2 114 410 3.78000000E+02 7.72933357E+02
  3 114 410 3.67920013E+02 1.51826392E+03
  4 114 410 3.37920013E+02 6.27346631E+03
  2 114 447 3.77000000E+02 1.28592273E+03
  3 114 447 3.60230011E+02 1.51826392E+03
  4 114 447 3.30230011E+02 6.07887598E+03
  2 114 448 3.87000000E+02 1.14866488E+03
  3 114 448 3.72020020E+02 1.51826392E+03
  4 114 448 3.42020020E+02 6.37721484E+03
  2 115 408 3.83000000E+02 8.87188146E+02
  3 115 408 3.71429993E+02 1.51826392E+03
  4 115 408 3.41429993E+02 6.36228467E+03
  2 115 409 3.81000000E+02 7.87502744E+02
  3 115 409 3.70730011E+02 1.51826392E+03
  4 115 409 3.40730011E+02 6.34457227E+03
  2 115 410 3.72000000E+02 7.56831212E+02
  3 115 410 3.62130005E+02 1.51826392E+03
  4 115 410 3.32130005E+02 6.12695410E+03
  2 115 447 3.92000000E+02 1.36797089E+03
  3 115 447 3.74160004E+02 1.51826392E+03
  4 115 447 3.44160004E+02 6.43136621E+03
  2 116 408 3.80000000E+02 1.05128213E+03
  3 116 408 3.66290009E+02 1.51826392E+03
  4 116 408 3.36290009E+02 6.23222070E+03
  2 116 409 3.75000000E+02 8.38111823E+02
  3 116 409 3.64070007E+02 1.51826392E+03
  4 116 409 3.34070007E+02 6.17604443E+03
  2 116 446 3.81000000E+02 1.47455488E+03
  3 116 446 3.61770020E+02 1.51826392E+03
  4 116 446 3.31770020E+02 6.11784473E+03
  2 117 408 3.75000000E+02 1.16016875E+03
  3 117 408 3.59869995E+02 1.51826392E+03
  4 117 408 3.29869995E+02 6.06976562E+03
  2 117 409 3.75000000E+02 8.13573662E+02
  3 117 409 3.64390015E+02 1.51826392E+03
  4 117 409 3.34390015E+02 6.18414209E+03
  2 117 410 3.72000000E+02 6.79383665E+02
  3 117 410 3.63140015E+02 1.51826392E+03
  4 117 410 3.33140015E+02 6.15251172E+03
  2 117 446 3.79000000E+02 1.47762273E+03
  3 117 446 3.59730011E+02 1.51826392E+03
  4 117 446 3.29730011E+02 6.06622363E+03
  2 117 447 3.98000000E+02 1.47072181E+03
  3 117 447 3.78820007E+02 1.51826392E+03
  4 117 447 3.48820007E+02 6.54928418E+03
  2 118 408 3.77000000E+02 1.14943243E+03
  3 118 408 3.62010010E+02 1.51826392E+03
  4 118 408 3.32010010E+02 6.12391797E+03
  2 118 410 3.82000000E+02 6.47944584E+02
  3 118 410 3.73550018E+02 1.51826392E+03
  4 118 410 3.43550018E+02 6.41593115E+03
  2 118 411 3.77000000E+02 6.12672440E+02
  3 118 411 3.69010010E+02 1.51826392E+03
  4 118 411 3.39010010E+02 6.30104834E+03
  2 118 441 3.77000000E+02 1.03978059E+03
  3 118 441 3.63440002E+02 1.51826392E+03
  4 118 441 3.33440002E+02 6.16010303E+03
  2 118 447 3.92000000E+02 1.49986059E+03
  3 118 447 3.72440002E+02 1.51826392E+03
  4 118 447 3.42440002E+02 6.38784229E+03
  2 119 408 3.81000000E+02 9.20159984E+02
  3 119 408 3.69000000E+02 1.51826392E+03
  4 119 408 3.39000000E+02 6.30079492E+03
  2 119 411 3.91000000E+02 5.22958152E+02
  3 119 411 3.84179993E+02 1.51826392E+03
  4 119 411 3.54179993E+02 6.68491602E+03
  2 119 412 3.76000000E+02 1.01524243E+03
  3 119 412 3.62760010E+02 1.51826392E+03
  4 119 412 3.32760010E+02 6.14289600E+03
  2 119 424 3.82000000E+02 1.06201845E+03
  3 119 424 3.68149994E+02 1.51826392E+03
  4 119 424 3.38149994E+02 6.27928613E+03
  2 119 425 3.84000000E+02 9.61567838E+02
  3 119 425 3.71459991E+02 1.51826392E+03
  4 119 425 3.41459991E+02 6.36304346E+03
  2 119 426 3.83000000E+02 9.02522742E+02
  3 119 426 3.71230011E+02 1.51826392E+03
  4 119 426 3.41230011E+02 6.35722412E+03
  2 119 427 3.80000000E+02 8.31978453E+02
  3 119 427 3.69149994E+02 1.51826392E+03
  4 119 427 3.39149994E+02 6.30459082E+03
  2 119 428 3.82000000E+02 8.35811517E+02
  3 119 428 3.71100006E+02 1.51826392E+03
  4 119 428 3.41100006E+02 6.35393457E+03
  2 119 429 3.78000000E+02 8.41944887E+02
  3 119 429 3.67020020E+02 1.51826392E+03
  4 119 429 3.37020020E+02 6.25069287E+03
  2 119 437 3.77000000E+02 1.36797089E+03
  3 119 437 3.59160004E+02 1.51826392E+03
  4 119 437 3.29160004E+02 6.05179980E+03
  2 119 440 3.86000000E+02 9.79970289E+02
  3 119 440 3.73220001E+02 1.51826392E+03
  4 119 440 3.43220001E+02 6.40757959E+03
  2 119 441 3.91000000E+02 9.27060903E+02
  3 119 441 3.78910004E+02 1.51826392E+03
  4 119 441 3.48910004E+02 6.55156152E+03
  2 119 442 3.82000000E+02 9.17092128E+02
  3 119 442 3.70040009E+02 1.51826392E+03
  4 119 442 3.40040009E+02 6.32711182E+03
  2 119 447 3.82000000E+02 1.49986059E+03
  3 119 447 3.62440002E+02 1.51826392E+03
  4 119 447 3.32440002E+02 6.13479834E+03
  2 119 448 3.98000000E+02 1.46612120E+03
  3 119 448 3.78880005E+02 1.51826392E+03
  4 119 448 3.48880005E+02 6.55080273E+03
  2 120 401 3.72000000E+02 7.95171211E+02
  3 120 401 3.61630005E+02 1.51826392E+03
  4 120 401 3.31630005E+02 6.11430176E+03
  2 120 402 3.72000000E+02 8.15108760E+02
  3 120 402 3.61369995E+02 1.51826392E+03
  4 120 402 3.31369995E+02 6.10772266E+03
  2 120 408 3.87000000E+02 6.92420294E+02
  3 120 408 3.77970001E+02 1.51826392E+03
  4 120 408 3.47970001E+02 6.52777539E+03
  2 120 412 3.74000000E+02 6.85519375E+02
  3 120 412 3.65059998E+02 1.51826392E+03
  4 120 412 3.35059998E+02 6.20109570E+03
  2 120 423 3.78000000E+02 1.20080906E+03
  3 120 423 3.62339996E+02 1.51826392E+03
  4 120 423 3.32339996E+02 6.13226758E+03
  2 120 429 3.85000000E+02 8.54213968E+02
  3 120 429 3.73860016E+02 1.51826392E+03
  4 120 429 3.43860016E+02 6.42377490E+03
  2 120 436 3.81000000E+02 1.48222334E+03
  3 120 436 3.61670013E+02 1.51826392E+03
  4 120 436 3.31670013E+02 6.11531396E+03
  2 120 437 3.85000000E+02 1.30586028E+03
  3 120 437 3.67970001E+02 1.51826392E+03
  4 120 437 3.37970001E+02 6.27473145E+03
  2 120 438 3.85000000E+02 1.10265875E+03
  3 120 438 3.70619995E+02 1.51826392E+03
  4 120 438 3.40619995E+02 6.34178809E+03
  2 120 439 3.86000000E+02 9.89171514E+02
  3 120 439 3.73100006E+02 1.51826392E+03
  4 120 439 3.43100006E+02 6.40454346E+03
  2 120 442 3.85000000E+02 8.08973050E+02
  3 120 442 3.74450012E+02 1.51826392E+03
  4 120 442 3.44450012E+02 6.43870459E+03
  2 120 448 3.96000000E+02 1.45078426E+03
  3 120 448 3.77080017E+02 1.51826392E+03
  4 120 448 3.47080017E+02 6.50525488E+03
  2 121 401 3.77000000E+02 9.15559371E+02
  3 121 401 3.65059998E+02 1.51826392E+03
  4 121 401 3.35059998E+02 6.20109570E+03
  2 121 402 3.81000000E+02 8.79519678E+02
  3 121 402 3.69529999E+02 1.51826392E+03
  4 121 402 3.39529999E+02 6.31420654E+03
  2 121 403 3.81000000E+02 8.13573662E+02
  3 121 403 3.70390015E+02 1.51826392E+03
  4 121 403 3.40390015E+02 6.33596826E+03
  2 121 404 3.74000000E+02 7.29992745E+02
  3 121 404 3.64480011E+02 1.51826392E+03
  4 121 404 3.34480011E+02 6.18641943E+03
  2 121 407 3.75000000E+02 6.37978150E+02
  3 121 407 3.66679993E+02 1.51826392E+03
  4 121 407 3.36679993E+02 6.24208887E+03
  2 121 412 3.77000000E+02 4.29408460E+02
  3 121 412 3.71399994E+02 1.51826392E+03
  4 121 412 3.41399994E+02 6.36152539E+03
  2 121 423 3.79000000E+02 1.27288845E+03
  3 121 423 3.62399994E+02 1.51826392E+03
  4 121 423 3.32399994E+02 6.13378613E+03
  2 121 429 3.90000000E+02 8.84120291E+02
  3 121 429 3.78470001E+02 1.51826392E+03
  4 121 429 3.48470001E+02 6.54042725E+03
  2 121 436 3.83000000E+02 1.42624844E+03
  3 121 436 3.64399994E+02 1.51826392E+03
  4 121 436 3.34399994E+02 6.18439502E+03
  2 121 442 3.99000000E+02 7.14658149E+02
  3 121 442 3.89679993E+02 1.51826392E+03
  4 121 442 3.59679993E+02 6.82408984E+03
  2 121 443 3.92000000E+02 8.01304582E+02
  3 121 443 3.81550018E+02 1.51826392E+03
  4 121 443 3.51550018E+02 6.61836523E+03
  2 121 444 3.80000000E+02 9.34729371E+02
  3 121 444 3.67809998E+02 1.51826392E+03
  4 121 444 3.37809998E+02 6.27068311E+03
  2 121 448 3.86000000E+02 1.44848396E+03
  3 121 448 3.67110016E+02 1.51826392E+03
  4 121 448 3.37110016E+02 6.25297021E+03
  2 122 401 3.73000000E+02 9.78437531E+02
  3 122 401 3.60239990E+02 1.51826392E+03
  4 122 401 3.30239990E+02 6.07912842E+03
  2 122 402 3.81000000E+02 9.54666919E+02
  3 122 402 3.68549988E+02 1.51826392E+03
  4 122 402 3.38549988E+02 6.28940771E+03
  2 122 404 3.91000000E+02 8.60349678E+02
  3 122 404 3.79779999E+02 1.51826392E+03
  4 122 404 3.49779999E+02 6.57357617E+03
  2 122 405 3.93000000E+02 7.79069067E+02
  3 122 405 3.82839996E+02 1.51826392E+03
  4 122 405 3.52839996E+02 6.65100781E+03
  2 122 406 3.91000000E+02 6.97020907E+02
  3 122 406 3.81910004E+02 1.51826392E+03
  4 122 406 3.51910004E+02 6.62747510E+03
  2 122 412 3.83000000E+02 3.90300912E+02
  3 122 412 3.77910004E+02 1.51826392E+03
  4 122 412 3.47910004E+02 6.52625732E+03
  2 122 423 3.85000000E+02 1.44771875E+03
  3 122 423 3.66119995E+02 1.51826392E+03
  4 122 423 3.36119995E+02 6.22791846E+03
  2 122 429 3.89000000E+02 8.48080598E+02
  3 122 429 3.77940002E+02 1.51826392E+03
  4 122 429 3.47940002E+02 6.52701660E+03
  2 122 436 3.87000000E+02 1.34650059E+03
  3 122 436 3.69440002E+02 1.51826392E+03
  4 122 436 3.39440002E+02 6.31192871E+03
  2 122 444 3.95000000E+02 9.19392435E+02
  3 122 444 3.83010010E+02 1.51826392E+03
  4 122 444 3.53010010E+02 6.65531006E+03
  2 122 445 3.75000000E+02 1.06201845E+03
  3 122 445 3.61149994E+02 1.51826392E+03
  4 122 445 3.31149994E+02 6.10215527E+03
  2 122 448 3.83000000E+02 1.48069059E+03
  3 122 448 3.63690002E+02 1.51826392E+03
  4 122 448 3.33690002E+02 6.16642871E+03
  2 123 402 3.75000000E+02 1.03671274E+03
  3 123 402 3.61480011E+02 1.51826392E+03
  4 123 402 3.31480011E+02 6.11050635E+03
  2 123 403 3.85000000E+02 1.03824784E+03