# File generated by Flopy version 3.6.0 on 04/23/2024 at 11:19:39.
BEGIN options
  SAVE_FLOWS
END options

BEGIN dimensions
  MAXBOUND  68
END dimensions

BEGIN period  1
  1 2 1 1.78859091E+02
  1 2 24 1.78859091E+02
  1 3 1 1.78768182E+02
  1 3 24 1.78768182E+02
  1 4 1 1.78677273E+02
  1 4 24 1.78677273E+02
  1 5 1 1.78586364E+02
  1 5 24 1.78586364E+02
  1 6 1 1.78495455E+02
  1 6 24 1.78495455E+02
  1 7 1 1.78404545E+02
  1 7 24 1.78404545E+02
  1 8 1 1.78313636E+02
  1 8 24 1.78313636E+02
  1 9 1 1.78222727E+02
  1 9 24 1.78222727E+02
  1 10 1 1.78131818E+02
  1 10 24 1.78131818E+02
  1 11 1 1.78040909E+02
  1 11 24 1.78040909E+02
  1 1 1 1.78950000E+02
  1 12 1 1.77950000E+02
  1 1 2 1.78950000E+02
  1 12 2 1.77950000E+02
  1 1 3 1.78950000E+02
  1 12 3 1.77950000E+02
  1 1 4 1.78950000E+02
  1 12 4 1.77950000E+02
  1 1 5 1.78950000E+02
  1 12 5 1.77950000E+02
  1 1 6 1.78950000E+02
  1 12 6 1.77950000E+02
  1 1 7 1.78950000E+02
  1 12 7 1.77950000E+02
  1 1 8 1.78950000E+02
  1 12 8 1.77950000E+02
  1 1 9 1.78950000E+02
  1 12 9 1.77950000E+02
  1 1 10 1.78950000E+02
  1 12 10 1.77950000E+02
  1 1 11 1.78950000E+02
  1 12 11 1.77950000E+02
  1 1 12 1.78950000E+02
  1 12 12 1.77950000E+02
  1 1 13 1.78950000E+02
  1 12 13 1.77950000E+02
  1 1 14 1.78950000E+02
  1 12 14 1.77950000E+02
  1 1 15 1.78950000E+02
  1 12 15 1.77950000E+02
  1 1 16 1.78950000E+02
  1 12 16 1.77950000E+02
  1 1 17 1.78950000E+02
  1 12 17 1.77950000E+02
  1 1 18 1.78950000E+02
  1 12 18 1.77950000E+02
  1 1 19 1.78950000E+02
  1 12 19 1.77950000E+02
  1 1 20 1.78950000E+02
  1 12 20 1.77950000E+02
  1 1 21 1.78950000E+02
  1 12 21 1.77950000E+02
  1 1 22 1.78950000E+02
  1 12 22 1.77950000E+02
  1 1 23 1.78950000E+02
  1 12 23 1.77950000E+02
  1 1 24 1.78950000E+02
  1 12 24 1.77950000E+02
END period  1

