# File generated by Flopy version 3.6.0 on 04/23/2024 at 11:19:39.
BEGIN options
  BUDGET  FILEOUT  hillslope.cbb
  HEAD  FILEOUT  hillslope.hds
END options

BEGIN period  1
  SAVE  HEAD  ALL
  SAVE  BUDGET  ALL
  PRINT  HEAD  LAST
END period  1

