# File generated by Flopy version 3.6.0 on 04/23/2024 at 11:19:39.
BEGIN options
END options

BEGIN packages
  DIS6  hillslope.dis  dis
  IC6  hillslope.ic  ic
  NPF6  hillslope.npf  npf
  CHD6  hillslope.chd  chd
  OC6  hillslope.oc  oc
END packages

