# File generated by Flopy version 3.6.0 on 04/23/2024 at 11:19:39.
BEGIN options
END options

BEGIN dimensions
  NLAY  1
  NROW  12
  NCOL  24
END dimensions

BEGIN griddata
  delr
    CONSTANT       5.00000000
  delc
    CONSTANT       5.00000000
  top
    CONSTANT     200.95000000
  botm
    CONSTANT     168.95000000
END griddata

