# File generated by Flopy version 3.6.0 on 04/23/2024 at 11:19:39.
BEGIN options
  COMPLEXITY  simple
END options

