# File generated by Flopy version 3.6.0 on 04/23/2024 at 11:19:39.
BEGIN options
  SAVE_FLOWS
END options

BEGIN griddata
  icelltype
    CONSTANT  1
  k
    CONSTANT       0.10000000
END griddata

