# File generated by Flopy version 3.6.0 on 04/23/2024 at 11:19:39.
BEGIN options
END options

BEGIN timing
  TDIS6  hillslope.tdis
END timing

BEGIN models
  gwf6  hillslope.nam  hillslope
END models

BEGIN exchanges
END exchanges

BEGIN solutiongroup  1
  ims6  hillslope.ims  hillslope
END solutiongroup  1

