# File generated by Flopy version 3.6.0 on 04/24/2024 at 09:51:03.
BEGIN options
  SAVE_FLOWS
END options

BEGIN griddata
  icelltype
    CONSTANT  1
  k
    CONSTANT       0.10000000
END griddata

