# File generated by Flopy version 3.6.0 on 04/24/2024 at 09:51:03.
BEGIN options
  COMPLEXITY  simple
END options

