# File generated by Flopy version 3.6.0 on 04/24/2024 at 09:51:03.
BEGIN griddata
  strt
    INTERNAL  FACTOR  1.0
       178.45000000     178.45000000     178.45000000     178.45000000     178.45000000     178.45000000     178.45000000     178.45000000     178.45000000     178.45000000     178.45000000     178.45000000
       178.45000000     178.45000000     178.45000000     178.45000000     178.45000000     178.45000000     178.45000000     178.45000000     178.45000000     178.45000000     178.45000000     178.45000000
       178.45000000     178.45000000     178.45000000     178.45000000     178.45000000     178.45000000     178.45000000     178.45000000     178.45000000     178.45000000     178.45000000     178.45000000
       178.45000000     178.45000000     178.45000000     178.45000000     178.45000000     178.45000000     178.45000000     178.45000000     178.45000000     178.45000000     178.45000000     178.45000000
       178.45000000     178.45000000     178.45000000     178.45000000     178.45000000     178.45000000     178.45000000     178.45000000     178.45000000     178.45000000     178.45000000     178.45000000
       178.45000000     178.45000000     178.45000000     178.45000000     178.45000000     178.45000000     178.45000000     178.45000000     178.45000000     178.45000000     178.45000000     178.45000000
       178.45000000     178.45000000     178.45000000     178.45000000     178.45000000     178.45000000     178.45000000     178.45000000     178.45000000     178.45000000     178.45000000     178.45000000
       178.45000000     178.45000000     178.45000000     178.45000000     178.45000000     178.45000000     178.45000000     178.45000000     178.45000000     178.45000000     178.45000000     178.45000000
       178.45000000     178.45000000     178.45000000     178.45000000     178.45000000     178.45000000     178.45000000     178.45000000     178.45000000     178.45000000     178.45000000     178.45000000
       178.45000000     178.45000000     178.45000000     178.45000000     178.45000000     178.45000000     178.45000000     178.45000000     178.45000000     178.45000000     178.45000000     178.45000000
       178.45000000     178.45000000     178.45000000     178.45000000     178.45000000     178.45000000     178.45000000     178.45000000     178.45000000     178.45000000     178.45000000     178.45000000
       178.45000000     178.45000000     178.45000000     178.45000000     178.45000000     178.45000000     178.45000000     178.45000000     178.45000000     178.45000000     178.45000000     178.45000000
       178.45000000     178.45000000     178.45000000     178.45000000     178.45000000     178.45000000     178.45000000     178.45000000     178.45000000     178.45000000     178.45000000     178.45000000
       178.45000000     178.45000000     178.45000000     178.45000000     178.45000000     178.45000000     178.45000000     178.45000000     178.45000000     178.45000000     178.45000000     178.45000000
       178.45000000     178.45000000     178.45000000     178.45000000     178.45000000     178.45000000     178.45000000     178.45000000     178.45000000     178.45000000     178.45000000     178.45000000
       178.45000000     178.45000000     178.45000000     178.45000000     178.45000000     178.45000000     178.45000000     178.45000000     178.45000000     178.45000000     178.45000000     178.45000000
       178.45000000     178.45000000     178.45000000     178.45000000     178.45000000     178.45000000     178.45000000     178.45000000     178.45000000     178.45000000     178.45000000     178.45000000
       178.45000000     178.45000000     178.45000000     178.45000000     178.45000000     178.45000000     178.45000000     178.45000000     178.45000000     178.45000000     178.45000000     178.45000000
       178.45000000     178.45000000     178.45000000     178.45000000     178.45000000     178.45000000     178.45000000     178.45000000     178.45000000     178.45000000     178.45000000     178.45000000
       178.45000000     178.45000000     178.45000000     178.45000000     178.45000000     178.45000000     178.45000000     178.45000000     178.45000000     178.45000000     178.45000000     178.45000000
       178.45000000     178.45000000     178.45000000     178.45000000     178.45000000     178.45000000     178.45000000     178.45000000     178.45000000     178.45000000     178.45000000     178.45000000
       178.45000000     178.45000000     178.45000000     178.45000000     178.45000000     178.45000000     178.45000000     178.45000000     178.45000000     178.45000000     178.45000000     178.45000000
       178.45000000     178.45000000     178.45000000     178.45000000     178.45000000     178.45000000     178.45000000     178.45000000     178.45000000     178.45000000     178.45000000     178.45000000
       178.45000000     178.45000000     178.45000000     178.45000000     178.45000000     178.45000000     178.45000000     178.45000000     178.45000000     178.45000000     178.45000000     178.45000000
END griddata

