# File generated by Flopy version 3.6.0 on 04/24/2024 at 09:51:03.
BEGIN options
  SAVE_FLOWS
END options

BEGIN dimensions
  MAXBOUND  68
END dimensions

BEGIN period  1
  1 2 1 1.78906522E+02
  1 2 12 1.78906522E+02
  1 3 1 1.78863043E+02
  1 3 12 1.78863043E+02
  1 4 1 1.78819565E+02
  1 4 12 1.78819565E+02
  1 5 1 1.78776087E+02
  1 5 12 1.78776087E+02
  1 6 1 1.78732609E+02
  1 6 12 1.78732609E+02
  1 7 1 1.78689130E+02
  1 7 12 1.78689130E+02
  1 8 1 1.78645652E+02
  1 8 12 1.78645652E+02
  1 9 1 1.78602174E+02
  1 9 12 1.78602174E+02
  1 10 1 1.78558696E+02
  1 10 12 1.78558696E+02
  1 11 1 1.78515217E+02
  1 11 12 1.78515217E+02
  1 12 1 1.78471739E+02
  1 12 12 1.78471739E+02
  1 13 1 1.78428261E+02
  1 13 12 1.78428261E+02
  1 14 1 1.78384783E+02
  1 14 12 1.78384783E+02
  1 15 1 1.78341304E+02
  1 15 12 1.78341304E+02
  1 16 1 1.78297826E+02
  1 16 12 1.78297826E+02
  1 17 1 1.78254348E+02
  1 17 12 1.78254348E+02
  1 18 1 1.78210870E+02
  1 18 12 1.78210870E+02
  1 19 1 1.78167391E+02
  1 19 12 1.78167391E+02
  1 20 1 1.78123913E+02
  1 20 12 1.78123913E+02
  1 21 1 1.78080435E+02
  1 21 12 1.78080435E+02
  1 22 1 1.78036957E+02
  1 22 12 1.78036957E+02
  1 23 1 1.77993478E+02
  1 23 12 1.77993478E+02
  1 1 1 1.78950000E+02
  1 24 1 1.77950000E+02
  1 1 2 1.78950000E+02
  1 24 2 1.77950000E+02
  1 1 3 1.78950000E+02
  1 24 3 1.77950000E+02
  1 1 4 1.78950000E+02
  1 24 4 1.77950000E+02
  1 1 5 1.78950000E+02
  1 24 5 1.77950000E+02
  1 1 6 1.78950000E+02
  1 24 6 1.77950000E+02
  1 1 7 1.78950000E+02
  1 24 7 1.77950000E+02
  1 1 8 1.78950000E+02
  1 24 8 1.77950000E+02
  1 1 9 1.78950000E+02
  1 24 9 1.77950000E+02
  1 1 10 1.78950000E+02
  1 24 10 1.77950000E+02
  1 1 11 1.78950000E+02
  1 24 11 1.77950000E+02
  1 1 12 1.78950000E+02
  1 24 12 1.77950000E+02
END period  1

