# File generated by Flopy version 3.6.0 on 05/23/2024 at 12:19:30.
BEGIN options
  READASARRAYS
END options

BEGIN period  1
  recharge
    CONSTANT  1.00000000E-06
END period  1

