# File generated by Flopy version 3.6.0 on 06/11/2024 at 15:25:58.
BEGIN options
  READASARRAYS
  FIXED_CELL
END options

BEGIN period  1
  recharge
    CONSTANT  1.00000000E-06
END period  1

