# File generated by Flopy version 3.6.0 on 06/19/2024 at 15:11:33.
BEGIN options
  READASARRAYS
  FIXED_CELL
END options

BEGIN period  1
  recharge
    CONSTANT  1.00000000E-06
END period  1

