# File generated by Flopy version 3.8.2 on 12/11/2024 at 17:44:27.
BEGIN options
END options

BEGIN dimensions
  MAXBOUND  43608
END dimensions

BEGIN period  1
  1 12 296 1.97011993E+02 1.00000000E+02 
  1 13 296 1.97029999E+02 1.00000000E+02 
  1 13 297 1.97142258E+02 1.00000000E+02 
  1 14 295 1.96880005E+02 1.00000000E+02 
  1 14 296 1.97139999E+02 1.00000000E+02 
  1 14 297 1.97240005E+02 1.00000000E+02 
  1 15 296 1.97460007E+02 1.00000000E+02 
  1 15 297 1.97479996E+02 1.00000000E+02 
  1 16 296 1.97520004E+02 1.00000000E+02 
  1 16 297 1.97800003E+02 1.00000000E+02 
  1 17 301 1.97429367E+02 1.00000000E+02 
  1 19 295 1.97339996E+02 1.00000000E+02 
  1 21 286 1.96699997E+02 1.00000000E+02 
  1 21 288 1.96809998E+02 1.00000000E+02 
  1 21 294 1.98009995E+02 1.00000000E+02 
  1 21 295 1.98169998E+02 1.00000000E+02 
  1 21 296 1.98300003E+02 1.00000000E+02 
  1 21 298 1.98459991E+02 1.00000000E+02 
  1 21 299 1.98049988E+02 1.00000000E+02 
  1 22 286 1.96979996E+02 1.00000000E+02 
  1 22 287 1.97069992E+02 1.00000000E+02 
  1 22 291 1.97349991E+02 1.00000000E+02 
  1 22 293 1.98059998E+02 1.00000000E+02 
  1 22 294 1.98209991E+02 1.00000000E+02 
  1 22 298 1.98559998E+02 1.00000000E+02 
  1 22 302 1.98429993E+02 1.00000000E+02 
  1 22 338 2.03830002E+02 1.00000000E+02 
  1 22 339 2.04349991E+02 1.00000000E+02 
  1 22 340 2.05029999E+02 1.00000000E+02 
  1 23 285 1.96830002E+02 1.00000000E+02 
  1 23 287 1.97419998E+02 1.00000000E+02 
  1 23 289 1.96899994E+02 1.00000000E+02 
  1 23 292 1.97789993E+02 1.00000000E+02 
  1 23 293 1.98080002E+02 1.00000000E+02 
  1 23 294 1.98459991E+02 1.00000000E+02 
  1 23 295 1.97839996E+02 1.00000000E+02 
  1 23 296 1.98619995E+02 1.00000000E+02 
  1 23 299 1.98889999E+02 1.00000000E+02 
  1 23 302 1.98570007E+02 1.00000000E+02 
  1 23 337 2.03535629E+02 1.00000000E+02 
  1 23 338 2.03800003E+02 1.00000000E+02 
  1 23 339 2.04119995E+02 1.00000000E+02 
  1 23 340 2.04539993E+02 1.00000000E+02 
  1 23 341 2.05369995E+02 1.00000000E+02 
  1 24 287 1.97065536E+02 1.00000000E+02 
  1 24 293 1.98410004E+02 1.00000000E+02 
  1 24 294 1.98440002E+02 1.00000000E+02 
  1 24 295 1.98349991E+02 1.00000000E+02 
  1 24 296 1.98610001E+02 1.00000000E+02 
  1 24 300 1.98849991E+02 1.00000000E+02 
  1 24 303 1.98940002E+02 1.00000000E+02 
  1 24 304 1.98980011E+02 1.00000000E+02 
  1 24 306 1.98820007E+02 1.00000000E+02 
  1 24 307 1.99809998E+02 1.00000000E+02 
  1 24 334 2.03429993E+02 1.00000000E+02 
  1 24 335 2.03419998E+02 1.00000000E+02 
  1 24 336 2.03267776E+02 1.00000000E+02 
  1 24 337 2.03550003E+02 1.00000000E+02 
  1 24 338 2.04445007E+02 1.00000000E+02 
  1 24 339 2.04615005E+02 1.00000000E+02 
  1 24 340 2.04925003E+02 1.00000000E+02 
  1 24 341 2.04639999E+02 1.00000000E+02 
  1 24 342 2.06389999E+02 1.00000000E+02 
  1 25 291 1.98119995E+02 1.00000000E+02 
  1 25 293 1.97949997E+02 1.00000000E+02 
  1 25 294 1.98369995E+02 1.00000000E+02 
  1 25 295 1.98699997E+02 1.00000000E+02 
  1 25 296 1.98879990E+02 1.00000000E+02 
  1 25 297 1.98779999E+02 1.00000000E+02 
  1 25 298 1.99229996E+02 1.00000000E+02 
  1 25 299 1.99229996E+02 1.00000000E+02 
  1 25 300 1.99289993E+02 1.00000000E+02 
  1 25 303 1.99130005E+02 1.00000000E+02 
  1 25 304 1.99269989E+02 1.00000000E+02 
  1 25 305 1.99220001E+02 1.00000000E+02 
  1 25 306 1.98970001E+02 1.00000000E+02 
  1 25 307 2.00070007E+02 1.00000000E+02 
  1 25 308 2.00029999E+02 1.00000000E+02 
  1 25 328 2.02190002E+02 1.00000000E+02 
  1 25 331 2.02839996E+02 1.00000000E+02 
  1 25 332 2.02860001E+02 1.00000000E+02 
  1 25 333 2.03240005E+02 1.00000000E+02 
  1 25 334 2.03619995E+02 1.00000000E+02 
  1 25 335 2.02849854E+02 1.00000000E+02 
  1 25 336 2.03520004E+02 1.00000000E+02 
  1 25 337 2.03529999E+02 1.00000000E+02 
  1 25 338 2.03649994E+02 1.00000000E+02 
  1 25 339 2.04645004E+02 1.00000000E+02 
  1 25 340 2.04964996E+02 1.00000000E+02 
  1 25 341 2.04279999E+02 1.00000000E+02 
  1 25 342 2.06119995E+02 1.00000000E+02 
  1 26 287 1.97929993E+02 1.00000000E+02 
  1 26 290 1.98410004E+02 1.00000000E+02 
  1 26 291 1.98139999E+02 1.00000000E+02 
  1 26 292 1.98419998E+02 1.00000000E+02 
  1 26 293 1.98330002E+02 1.00000000E+02 
  1 26 294 1.98449997E+02 1.00000000E+02 
  1 26 295 1.98779999E+02 1.00000000E+02 
  1 26 296 1.99119995E+02 1.00000000E+02 
  1 26 297 1.99020004E+02 1.00000000E+02 
  1 26 298 1.99209991E+02 1.00000000E+02 
  1 26 299 1.99459991E+02 1.00000000E+02 
  1 26 301 1.99580002E+02 1.00000000E+02 
  1 26 304 1.99489990E+02 1.00000000E+02 
  1 26 305 1.99519989E+02 1.00000000E+02 
  1 26 306 1.99570007E+02 1.00000000E+02 
  1 26 307 1.99101685E+02 1.00000000E+02 
  1 26 308 2.00419998E+02 1.00000000E+02 
  1 26 309 2.00299988E+02 1.00000000E+02 
  1 26 321 2.01160004E+02 1.00000000E+02 
  1 26 322 2.01300003E+02 1.00000000E+02 
  1 26 324 2.01589996E+02 1.00000000E+02 
  1 26 325 2.01699997E+02 1.00000000E+02 
  1 26 326 2.01970001E+02 1.00000000E+02 
  1 26 327 2.02259995E+02 1.00000000E+02 
  1 26 328 2.02070007E+02 1.00000000E+02 
  1 26 329 2.02490005E+02 1.00000000E+02 
  1 26 330 2.02960007E+02 1.00000000E+02 
  1 26 331 2.02960007E+02 1.00000000E+02 
  1 26 332 2.03100006E+02 1.00000000E+02 
  1 26 333 2.03710007E+02 1.00000000E+02 
  1 26 334 2.03389999E+02 1.00000000E+02 
  1 26 335 2.03449997E+02 1.00000000E+02 
  1 26 336 2.03550003E+02 1.00000000E+02 
  1 26 337 2.03550003E+02 1.00000000E+02 
  1 26 338 2.03750000E+02 1.00000000E+02 
  1 26 339 2.03990005E+02 1.00000000E+02 
  1 26 340 2.04429993E+02 1.00000000E+02 
  1 26 341 2.04899994E+02 1.00000000E+02 
  1 26 342 2.05630005E+02 1.00000000E+02 
  1 27 288 1.97521881E+02 1.00000000E+02 
  1 27 289 1.98319992E+02 1.00000000E+02 
  1 27 290 1.98410004E+02 1.00000000E+02 
  1 27 291 1.98330002E+02 1.00000000E+02 
  1 27 292 1.98470001E+02 1.00000000E+02 
  1 27 293 1.98679993E+02 1.00000000E+02 
  1 27 294 1.98539993E+02 1.00000000E+02 
  1 27 295 1.98959991E+02 1.00000000E+02 
  1 27 296 1.99059998E+02 1.00000000E+02 
  1 27 297 1.99309998E+02 1.00000000E+02 
  1 27 298 1.99309998E+02 1.00000000E+02 
  1 27 299 1.99559998E+02 1.00000000E+02 
  1 27 300 1.99720001E+02 1.00000000E+02 
  1 27 305 1.99700012E+02 1.00000000E+02 
  1 27 306 1.99739990E+02 1.00000000E+02 
  1 27 307 1.99769989E+02 1.00000000E+02 
  1 27 308 2.00440002E+02 1.00000000E+02 
  1 27 309 2.00290009E+02 1.00000000E+02 
  1 27 310 1.99970001E+02 1.00000000E+02 
  1 27 312 2.00369995E+02 1.00000000E+02 
  1 27 313 2.00540009E+02 1.00000000E+02 
  1 27 317 2.01970001E+02 1.00000000E+02 
  1 27 318 2.02100006E+02 1.00000000E+02 
  1 27 319 2.02199997E+02 1.00000000E+02 
  1 27 321 2.01559998E+02 1.00000000E+02 
  1 27 322 2.01470001E+02 1.00000000E+02 
  1 27 323 2.01362320E+02 1.00000000E+02 
  1 27 324 2.01789993E+02 1.00000000E+02 
  1 27 325 2.01580002E+02 1.00000000E+02 
  1 27 326 2.01960007E+02 1.00000000E+02 
  1 27 327 2.02279999E+02 1.00000000E+02 
  1 27 328 2.02210007E+02 1.00000000E+02 
  1 27 329 2.02660004E+02 1.00000000E+02 
  1 27 330 2.02850006E+02 1.00000000E+02 
  1 27 331 2.03520004E+02 1.00000000E+02 
  1 27 332 2.02595169E+02 1.00000000E+02 
  1 27 333 2.03259995E+02 1.00000000E+02 
  1 27 334 2.03330002E+02 1.00000000E+02 
  1 27 335 2.03130005E+02 1.00000000E+02 
  1 27 336 2.03619995E+02 1.00000000E+02 
  1 27 337 2.03779999E+02 1.00000000E+02 
  1 27 338 2.03869995E+02 1.00000000E+02 
  1 27 339 2.03929993E+02 1.00000000E+02 
  1 27 340 2.04410004E+02 1.00000000E+02 
  1 27 341 2.04639999E+02 1.00000000E+02 
  1 27 342 2.04879990E+02 1.00000000E+02 
  1 27 343 2.06520004E+02 1.00000000E+02 
  1 27 344 2.07889999E+02 1.00000000E+02 
  1 28 287 1.98029999E+02 1.00000000E+02 
  1 28 288 1.98179993E+02 1.00000000E+02 
  1 28 289 1.98330002E+02 1.00000000E+02 
  1 28 290 1.99139999E+02 1.00000000E+02 
  1 28 291 1.98580002E+02 1.00000000E+02 
  1 28 292 1.98559998E+02 1.00000000E+02 
  1 28 293 1.98919998E+02 1.00000000E+02 
  1 28 294 1.99160004E+02 1.00000000E+02 
  1 28 295 1.98869995E+02 1.00000000E+02 
  1 28 296 1.99319992E+02 1.00000000E+02 
  1 28 297 1.99349991E+02 1.00000000E+02 
  1 28 298 1.99449997E+02 1.00000000E+02 
  1 28 299 1.99539993E+02 1.00000000E+02 
  1 28 300 1.99830002E+02 1.00000000E+02 
  1 28 301 1.99989990E+02 1.00000000E+02 
  1 28 306 2.00140015E+02 1.00000000E+02 
  1 28 307 1.99970001E+02 1.00000000E+02 
  1 28 308 2.00440002E+02 1.00000000E+02 
  1 28 309 2.00320007E+02 1.00000000E+02 
  1 28 310 2.00339996E+02 1.00000000E+02 
  1 28 311 2.00540009E+02 1.00000000E+02 
  1 28 312 2.00670013E+02 1.00000000E+02 
  1 28 313 2.00760010E+02 1.00000000E+02 
  1 28 314 2.01070007E+02 1.00000000E+02 
  1 28 316 2.02149994E+02 1.00000000E+02 
  1 28 317 2.02190002E+02 1.00000000E+02 
  1 28 318 2.02449997E+02 1.00000000E+02 
  1 28 319 2.02399994E+02 1.00000000E+02 
  1 28 320 2.02630005E+02 1.00000000E+02 
  1 28 322 2.01889999E+02 1.00000000E+02 
  1 28 323 2.01720001E+02 1.00000000E+02 
  1 28 324 2.01779999E+02 1.00000000E+02 
  1 28 325 2.01960007E+02 1.00000000E+02 
  1 28 326 2.02009995E+02 1.00000000E+02 
  1 28 327 2.02199997E+02 1.00000000E+02 
  1 28 328 2.02389999E+02 1.00000000E+02 
  1 28 329 2.02600006E+02 1.00000000E+02 
  1 28 330 2.02970001E+02 1.00000000E+02 
  1 28 331 2.03130005E+02 1.00000000E+02 
  1 28 332 2.03740005E+02 1.00000000E+02 
  1 28 333 2.03639999E+02 1.00000000E+02 
  1 28 334 2.03520004E+02 1.00000000E+02 
  1 28 335 2.03520004E+02 1.00000000E+02 
  1 28 336 2.03649994E+02 1.00000000E+02 
  1 28 337 2.03869995E+02 1.00000000E+02 
  1 28 338 2.04089996E+02 1.00000000E+02 
  1 28 339 2.04179993E+02 1.00000000E+02 
  1 28 340 2.04160004E+02 1.00000000E+02 
  1 28 341 2.05000000E+02 1.00000000E+02 
  1 28 342 2.04759995E+02 1.00000000E+02 
  1 28 343 2.05289993E+02 1.00000000E+02 
  1 28 344 2.05960007E+02 1.00000000E+02 
  1 28 345 2.06759995E+02 1.00000000E+02 
  1 28 346 2.08059998E+02 1.00000000E+02 
  1 29 286 1.98820007E+02 1.00000000E+02 
  1 29 287 1.98299988E+02 1.00000000E+02 
  1 29 288 1.98589996E+02 1.00000000E+02 
  1 29 289 1.98379990E+02 1.00000000E+02 
  1 29 290 1.98580002E+02 1.00000000E+02 
  1 29 291 1.98580002E+02 1.00000000E+02 
  1 29 292 1.98759995E+02 1.00000000E+02 
  1 29 293 1.99199997E+02 1.00000000E+02 
  1 29 294 1.99080002E+02 1.00000000E+02 
  1 29 295 1.99279999E+02 1.00000000E+02 
  1 29 296 1.99119995E+02 1.00000000E+02 
  1 29 297 1.99300003E+02 1.00000000E+02 
  1 29 298 1.99679993E+02 1.00000000E+02 
  1 29 299 1.99869995E+02 1.00000000E+02 
  1 29 300 1.99919998E+02 1.00000000E+02 
  1 29 301 2.00139999E+02 1.00000000E+02 
  1 29 302 2.00259995E+02 1.00000000E+02 
  1 29 307 2.00369995E+02 1.00000000E+02 
  1 29 308 2.00339996E+02 1.00000000E+02 
  1 29 309 2.00839996E+02 1.00000000E+02 
  1 29 310 2.00489990E+02 1.00000000E+02 
  1 29 311 2.00679993E+02 1.00000000E+02 
  1 29 312 2.00899994E+02 1.00000000E+02 
  1 29 313 2.01029999E+02 1.00000000E+02 
  1 29 314 2.01019989E+02 1.00000000E+02 
  1 29 315 2.01459991E+02 1.00000000E+02 
  1 29 316 2.01559998E+02 1.00000000E+02 
  1 29 317 2.02440002E+02 1.00000000E+02 
  1 29 318 2.02639999E+02 1.00000000E+02 
  1 29 319 2.02630005E+02 1.00000000E+02 
  1 29 320 2.02979996E+02 1.00000000E+02 
  1 29 321 2.03089996E+02 1.00000000E+02 
  1 29 322 2.03380005E+02 1.00000000E+02 
  1 29 323 2.02330002E+02 1.00000000E+02 
  1 29 324 2.01979996E+02 1.00000000E+02 
  1 29 325 2.01880005E+02 1.00000000E+02 
  1 29 326 2.02259995E+02 1.00000000E+02 
  1 29 327 2.02330002E+02 1.00000000E+02 
  1 29 328 2.02410004E+02 1.00000000E+02 
  1 29 329 2.02580002E+02 1.00000000E+02 
  1 29 330 2.02960007E+02 1.00000000E+02 
  1 29 331 2.03429993E+02 1.00000000E+02 
  1 29 332 2.03559998E+02 1.00000000E+02 
  1 29 333 2.03380005E+02 1.00000000E+02 
  1 29 334 2.03720001E+02 1.00000000E+02 
  1 29 335 2.03250000E+02 1.00000000E+02 
  1 29 336 2.03889999E+02 1.00000000E+02 
  1 29 337 2.04289993E+02 1.00000000E+02 
  1 29 338 2.04380005E+02 1.00000000E+02 
  1 29 339 2.04559998E+02 1.00000000E+02 
  1 29 340 2.04690002E+02 1.00000000E+02 
  1 29 341 2.05050003E+02 1.00000000E+02 
  1 29 342 2.04759995E+02 1.00000000E+02 
  1 29 343 2.05209991E+02 1.00000000E+02 
  1 29 344 2.05529999E+02 1.00000000E+02 
  1 29 345 2.04939941E+02 1.00000000E+02 
  1 29 346 2.06619995E+02 1.00000000E+02 
  1 29 347 2.08229996E+02 1.00000000E+02 
  1 30 242 1.90410004E+02 1.00000000E+02 
  1 30 243 1.90119995E+02 1.00000000E+02 
  1 30 287 1.98420013E+02 1.00000000E+02 
  1 30 288 1.98339996E+02 1.00000000E+02 
  1 30 289 1.98259552E+02 1.00000000E+02 
  1 30 290 1.98979996E+02 1.00000000E+02 
  1 30 291 1.99020004E+02 1.00000000E+02 
  1 30 292 1.99029999E+02 1.00000000E+02 
  1 30 293 1.99020004E+02 1.00000000E+02 
  1 30 294 1.99339996E+02 1.00000000E+02 
  1 30 295 1.99250000E+02 1.00000000E+02 
  1 30 296 1.99509995E+02 1.00000000E+02 
  1 30 297 1.99529999E+02 1.00000000E+02 
  1 30 298 1.99699997E+02 1.00000000E+02 
  1 30 299 2.00039993E+02 1.00000000E+02 
  1 30 300 2.00080002E+02 1.00000000E+02 
  1 30 301 2.00179993E+02 1.00000000E+02 
  1 30 302 2.00489990E+02 1.00000000E+02 
  1 30 304 2.00619995E+02 1.00000000E+02 
  1 30 305 2.00490005E+02 1.00000000E+02 
  1 30 306 2.00300003E+02 1.00000000E+02 
  1 30 307 2.00279999E+02 1.00000000E+02 
  1 30 308 2.00300003E+02 1.00000000E+02 
  1 30 309 2.00309998E+02 1.00000000E+02 
  1 30 310 2.00679993E+02 1.00000000E+02 
  1 30 311 2.00730011E+02 1.00000000E+02 
  1 30 312 2.01010010E+02 1.00000000E+02 
  1 30 313 2.01360016E+02 1.00000000E+02 
  1 30 314 2.01420013E+02 1.00000000E+02 
  1 30 315 2.01329987E+02 1.00000000E+02 
  1 30 316 2.01809998E+02 1.00000000E+02 
  1 30 317 2.01850006E+02 1.00000000E+02 
  1 30 318 2.01790009E+02 1.00000000E+02 
  1 30 319 2.02649994E+02 1.00000000E+02 
  1 30 320 2.03000000E+02 1.00000000E+02 
  1 30 321 2.03309998E+02 1.00000000E+02 
  1 30 322 2.03470001E+02 1.00000000E+02 
  1 30 323 2.02570007E+02 1.00000000E+02 
  1 30 324 2.02009995E+02 1.00000000E+02 
  1 30 325 2.02309998E+02 1.00000000E+02 
  1 30 326 2.02259995E+02 1.00000000E+02 
  1 30 327 2.02550003E+02 1.00000000E+02 
  1 30 328 2.02679993E+02 1.00000000E+02 
  1 30 329 2.02759995E+02 1.00000000E+02 
  1 30 330 2.02949997E+02 1.00000000E+02 
  1 30 331 2.03289993E+02 1.00000000E+02 
  1 30 332 2.03490005E+02 1.00000000E+02 
  1 30 333 2.03449997E+02 1.00000000E+02 
  1 30 334 2.03960007E+02 1.00000000E+02 
  1 30 335 2.04020004E+02 1.00000000E+02 
  1 30 336 2.04199997E+02 1.00000000E+02 
  1 30 337 2.04190002E+02 1.00000000E+02 
  1 30 338 2.04759995E+02 1.00000000E+02 
  1 30 339 2.04580002E+02 1.00000000E+02 
  1 30 340 2.04630005E+02 1.00000000E+02 
  1 30 341 2.05330002E+02 1.00000000E+02 
  1 30 342 2.05059998E+02 1.00000000E+02 
  1 30 343 2.05080002E+02 1.00000000E+02 
  1 30 344 2.05379990E+02 1.00000000E+02 
  1 30 345 2.05629990E+02 1.00000000E+02 
  1 30 346 2.06190002E+02 1.00000000E+02 
  1 30 347 2.07020004E+02 1.00000000E+02 
  1 30 348 2.07910004E+02 1.00000000E+02 
  1 30 349 2.09630005E+02 1.00000000E+02 
  1 31 242 1.90369995E+02 1.00000000E+02 
  1 31 243 1.90660004E+02 1.00000000E+02 
  1 31 287 1.98839996E+02 1.00000000E+02 
  1 31 288 1.98450012E+02 1.00000000E+02 
  1 31 289 1.98649994E+02 1.00000000E+02 
  1 31 290 1.98959991E+02 1.00000000E+02 
  1 31 291 1.99279999E+02 1.00000000E+02 
  1 31 292 1.99550003E+02 1.00000000E+02 
  1 31 293 1.99639999E+02 1.00000000E+02 
  1 31 294 1.99369995E+02 1.00000000E+02 
  1 31 295 1.99639999E+02 1.00000000E+02 
  1 31 296 1.99539993E+02 1.00000000E+02 
  1 31 297 1.99639999E+02 1.00000000E+02 
  1 31 298 1.99970001E+02 1.00000000E+02 
  1 31 299 1.99979996E+02 1.00000000E+02 
  1 31 300 1.99989990E+02 1.00000000E+02 
  1 31 301 2.00399994E+02 1.00000000E+02 
  1 31 302 2.00459991E+02 1.00000000E+02 
  1 31 304 2.01029999E+02 1.00000000E+02 
  1 31 305 2.00419998E+02 1.00000000E+02 
  1 31 306 2.00320007E+02 1.00000000E+02 
  1 31 307 2.00350006E+02 1.00000000E+02 
  1 31 308 2.00229996E+02 1.00000000E+02 
  1 31 309 2.00289993E+02 1.00000000E+02 
  1 31 310 2.00669998E+02 1.00000000E+02 
  1 31 311 2.00589996E+02 1.00000000E+02 
  1 31 312 2.01000000E+02 1.00000000E+02 
  1 31 313 2.01299988E+02 1.00000000E+02 
  1 31 314 2.01670013E+02 1.00000000E+02 
  1 31 315 2.01700012E+02 1.00000000E+02 
  1 31 316 2.01779999E+02 1.00000000E+02 
  1 31 317 2.01899994E+02 1.00000000E+02 
  1 31 318 2.02010010E+02 1.00000000E+02 
  1 31 319 2.02059998E+02 1.00000000E+02 
  1 31 320 2.03100006E+02 1.00000000E+02 
  1 31 321 2.03350006E+02 1.00000000E+02 
  1 31 322 2.03580002E+02 1.00000000E+02 
  1 31 323 2.03850006E+02 1.00000000E+02 
  1 31 324 2.02610001E+02 1.00000000E+02 
  1 31 325 2.02132507E+02 1.00000000E+02 
  1 31 326 2.02509995E+02 1.00000000E+02 
  1 31 327 2.02660004E+02 1.00000000E+02 
  1 31 328 2.02759995E+02 1.00000000E+02 
  1 31 329 2.02970001E+02 1.00000000E+02 
  1 31 330 2.03050003E+02 1.00000000E+02 
  1 31 331 2.03229996E+02 1.00000000E+02 
  1 31 332 2.03550003E+02 1.00000000E+02 
  1 31 333 2.03809998E+02 1.00000000E+02 
  1 31 334 2.03839996E+02 1.00000000E+02 
  1 31 335 2.04059998E+02 1.00000000E+02 
  1 31 336 2.04529999E+02 1.00000000E+02 
  1 31 337 2.04160004E+02 1.00000000E+02 
  1 31 338 2.04580002E+02 1.00000000E+02 
  1 31 339 2.04770004E+02 1.00000000E+02 
  1 31 340 2.04929993E+02 1.00000000E+02 
  1 31 341 2.05240005E+02 1.00000000E+02 
  1 31 342 2.05179993E+02 1.00000000E+02 
  1 31 343 2.05380005E+02 1.00000000E+02 
  1 31 344 2.05399994E+02 1.00000000E+02 
  1 31 345 2.05649994E+02 1.00000000E+02 
  1 31 346 2.05800003E+02 1.00000000E+02 
  1 31 347 2.05910004E+02 1.00000000E+02 
  1 31 348 2.07639999E+02 1.00000000E+02 
  1 31 349 2.07520004E+02 1.00000000E+02 
  1 31 350 2.09000000E+02 1.00000000E+02 
  1 32 242 1.90889999E+02 1.00000000E+02 
  1 32 243 1.91029999E+02 1.00000000E+02 
  1 32 287 1.99570007E+02 1.00000000E+02 
  1 32 288 1.98779999E+02 1.00000000E+02 
  1 32 289 1.98910004E+02 1.00000000E+02 
  1 32 290 1.98919998E+02 1.00000000E+02 
  1 32 291 1.99360001E+02 1.00000000E+02 
  1 32 292 1.99619995E+02 1.00000000E+02 
  1 32 293 1.99709991E+02 1.00000000E+02 
  1 32 294 1.99649994E+02 1.00000000E+02 
  1 32 295 1.99739990E+02 1.00000000E+02 
  1 32 296 1.99910004E+02 1.00000000E+02 
  1 32 297 1.99589996E+02 1.00000000E+02 
  1 32 298 1.99959991E+02 1.00000000E+02 
  1 32 299 2.00239990E+02 1.00000000E+02 
  1 32 300 2.00440002E+02 1.00000000E+02 
  1 32 301 2.00470001E+02 1.00000000E+02 
  1 32 302 2.00639999E+02 1.00000000E+02 
  1 32 305 2.00529999E+02 1.00000000E+02 
  1 32 306 2.00389999E+02 1.00000000E+02 
  1 32 307 2.00339996E+02 1.00000000E+02 
  1 32 308 2.00309998E+02 1.00000000E+02 
  1 32 309 2.00320007E+02 1.00000000E+02 
  1 32 310 2.00300003E+02 1.00000000E+02 
  1 32 311 2.01889999E+02 1.00000000E+02 
  1 32 313 2.01380005E+02 1.00000000E+02 
  1 32 314 2.01820007E+02 1.00000000E+02 
  1 32 315 2.02040009E+02 1.00000000E+02 
  1 32 316 2.01880005E+02 1.00000000E+02 
  1 32 317 2.01910004E+02 1.00000000E+02 
  1 32 318 2.02059998E+02 1.00000000E+02 
  1 32 319 2.02380005E+02 1.00000000E+02 
  1 32 320 2.02959991E+02 1.00000000E+02 
  1 32 321 2.03550003E+02 1.00000000E+02 
  1 32 322 2.03770004E+02 1.00000000E+02 
  1 32 323 2.03919998E+02 1.00000000E+02 
  1 32 324 2.02910004E+02 1.00000000E+02 
  1 32 325 2.02600006E+02 1.00000000E+02 
  1 32 326 2.02699997E+02 1.00000000E+02 
  1 32 327 2.02919998E+02 1.00000000E+02 
  1 32 328 2.03080002E+02 1.00000000E+02 
  1 32 329 2.03210007E+02 1.00000000E+02 
  1 32 330 2.03250000E+02 1.00000000E+02 
  1 32 331 2.03339996E+02 1.00000000E+02 
  1 32 332 2.03550003E+02 1.00000000E+02 
  1 32 333 2.03899994E+02 1.00000000E+02 
  1 32 334 2.03899994E+02 1.00000000E+02 
  1 32 335 2.04119995E+02 1.00000000E+02 
  1 32 336 2.04529999E+02 1.00000000E+02 
  1 32 337 2.04589996E+02 1.00000000E+02 
  1 32 338 2.04580002E+02 1.00000000E+02 
  1 32 339 2.04580002E+02 1.00000000E+02 
  1 32 340 2.04759995E+02 1.00000000E+02 
  1 32 341 2.05119995E+02 1.00000000E+02 
  1 32 342 2.05470001E+02 1.00000000E+02 
  1 32 343 2.05600006E+02 1.00000000E+02 
  1 32 344 2.05559998E+02 1.00000000E+02 
  1 32 345 2.05820007E+02 1.00000000E+02 
  1 32 346 2.05990005E+02 1.00000000E+02 
  1 32 347 2.06100006E+02 1.00000000E+02 
  1 32 348 2.07259995E+02 1.00000000E+02 
  1 32 349 2.08610001E+02 1.00000000E+02 
  1 32 350 2.08100006E+02 1.00000000E+02 
  1 32 351 2.08960007E+02 1.00000000E+02 
  1 32 352 2.10300003E+02 1.00000000E+02 
  1 32 353 2.10869995E+02 1.00000000E+02 
  1 33 241 1.91349991E+02 1.00000000E+02 
  1 33 242 1.91169998E+02 1.00000000E+02 
  1 33 243 1.91279999E+02 1.00000000E+02 
  1 33 264 2.02610001E+02 1.00000000E+02 
  1 33 288 1.99270004E+02 1.00000000E+02 
  1 33 289 1.99410004E+02 1.00000000E+02 
  1 33 290 1.98970001E+02 1.00000000E+02 
  1 33 291 1.99520004E+02 1.00000000E+02 
  1 33 292 1.99539993E+02 1.00000000E+02 
  1 33 293 1.99830002E+02 1.00000000E+02 
  1 33 294 1.99910004E+02 1.00000000E+02 
  1 33 295 1.99949997E+02 1.00000000E+02 
  1 33 296 1.99929993E+02 1.00000000E+02 
  1 33 297 2.00069992E+02 1.00000000E+02 
  1 33 298 1.99929993E+02 1.00000000E+02 
  1 33 299 2.00250000E+02 1.00000000E+02 
  1 33 300 2.00509995E+02 1.00000000E+02 
  1 33 301 2.00649994E+02 1.00000000E+02 
  1 33 302 2.00830002E+02 1.00000000E+02 
  1 33 303 2.01289993E+02 1.00000000E+02 
  1 33 305 2.00500000E+02 1.00000000E+02 
  1 33 306 2.00440002E+02 1.00000000E+02 
  1 33 307 2.00369995E+02 1.00000000E+02 
  1 33 308 2.00360001E+02 1.00000000E+02 
  1 33 309 2.00289993E+02 1.00000000E+02 
  1 33 310 2.00309998E+02 1.00000000E+02 
  1 33 311 2.01270004E+02 1.00000000E+02 
  1 33 315 2.02170013E+02 1.00000000E+02 
  1 33 316 2.02119995E+02 1.00000000E+02 
  1 33 317 2.02119995E+02 1.00000000E+02 
  1 33 318 2.02429993E+02 1.00000000E+02 
  1 33 319 2.02649994E+02 1.00000000E+02 
  1 33 320 2.02679993E+02 1.00000000E+02 
  1 33 321 2.02730011E+02 1.00000000E+02 
  1 33 322 2.03869995E+02 1.00000000E+02 
  1 33 323 2.03990005E+02 1.00000000E+02 
  1 33 324 2.04330002E+02 1.00000000E+02 
  1 33 325 2.03080002E+02 1.00000000E+02 
  1 33 326 2.03080002E+02 1.00000000E+02 
  1 33 327 2.03039993E+02 1.00000000E+02 
  1 33 328 2.03449997E+02 1.00000000E+02 
  1 33 329 2.03630005E+02 1.00000000E+02 
  1 33 330 2.03449997E+02 1.00000000E+02 
  1 33 331 2.03259995E+02 1.00000000E+02 
  1 33 332 2.03619995E+02 1.00000000E+02 
  1 33 333 2.03729996E+02 1.00000000E+02 
  1 33 334 2.04020004E+02 1.00000000E+02 
  1 33 335 2.04119995E+02 1.00000000E+02 
  1 33 336 2.04220001E+02 1.00000000E+02 
  1 33 337 2.04630005E+02 1.00000000E+02 
  1 33 338 2.04839996E+02 1.00000000E+02 
  1 33 339 2.05029999E+02 1.00000000E+02 
  1 33 340 2.04910004E+02 1.00000000E+02 
  1 33 341 2.05149994E+02 1.00000000E+02 
  1 33 342 2.05610001E+02 1.00000000E+02 
  1 33 343 2.05889999E+02 1.00000000E+02 
  1 33 344 2.05779999E+02 1.00000000E+02 
  1 33 345 2.06000000E+02 1.00000000E+02 
  1 33 346 2.06419998E+02 1.00000000E+02 
  1 33 347 2.06330002E+02 1.00000000E+02 
  1 33 348 2.06350006E+02 1.00000000E+02 
  1 33 349 2.08449997E+02 1.00000000E+02 
  1 33 350 2.08869995E+02 1.00000000E+02 
  1 33 351 2.07979996E+02 1.00000000E+02 
  1 33 352 2.08789993E+02 1.00000000E+02 
  1 33 353 2.09960007E+02 1.00000000E+02 
  1 33 354 2.11000000E+02 1.00000000E+02 
  1 34 240 1.91379990E+02 1.00000000E+02 
  1 34 241 1.91550003E+02 1.00000000E+02 
  1 34 242 1.91309998E+02 1.00000000E+02 
  1 34 243 1.91440002E+02 1.00000000E+02 
  1 34 244 1.91940002E+02 1.00000000E+02 
  1 34 289 1.99339996E+02 1.00000000E+02 
  1 34 290 1.99360001E+02 1.00000000E+02 
  1 34 291 1.99589996E+02 1.00000000E+02 
  1 34 292 1.99860001E+02 1.00000000E+02 
  1 34 293 2.00009995E+02 1.00000000E+02 
  1 34 294 2.00209991E+02 1.00000000E+02 
  1 34 295 1.99940002E+02 1.00000000E+02 
  1 34 296 2.00220001E+02 1.00000000E+02 
  1 34 297 2.00319992E+02 1.00000000E+02 
  1 34 298 2.00379990E+02 1.00000000E+02 
  1 34 299 2.00399994E+02 1.00000000E+02 
  1 34 300 2.00509995E+02 1.00000000E+02 
  1 34 301 2.00889999E+02 1.00000000E+02 
  1 34 302 2.01830002E+02 1.00000000E+02 
  1 34 303 2.02000000E+02 1.00000000E+02 
  1 34 305 2.00639999E+02 1.00000000E+02 
  1 34 306 2.00570007E+02 1.00000000E+02 
  1 34 307 2.00350006E+02 1.00000000E+02 
  1 34 308 2.00339996E+02 1.00000000E+02 
  1 34 309 2.00339996E+02 1.00000000E+02 
  1 34 310 2.00309998E+02 1.00000000E+02 
  1 34 311 2.01489990E+02 1.00000000E+02 
  1 34 312 2.01580002E+02 1.00000000E+02 
  1 34 313 2.01849991E+02 1.00000000E+02 
  1 34 314 2.02389999E+02 1.00000000E+02 
  1 34 315 2.02690002E+02 1.00000000E+02 
  1 34 316 2.02200012E+02 1.00000000E+02 
  1 34 317 2.02309998E+02 1.00000000E+02 
  1 34 318 2.02429993E+02 1.00000000E+02 
  1 34 319 2.02570007E+02 1.00000000E+02 
  1 34 320 2.02959991E+02 1.00000000E+02 
  1 34 321 2.03000000E+02 1.00000000E+02 
  1 34 322 2.03089996E+02 1.00000000E+02 
  1 34 323 2.04240005E+02 1.00000000E+02 
  1 34 324 2.04429993E+02 1.00000000E+02 
  1 34 325 2.04520004E+02 1.00000000E+02 
  1 34 326 2.03320007E+02 1.00000000E+02 
  1 34 327 2.03289993E+02 1.00000000E+02 
  1 34 328 2.03500000E+02 1.00000000E+02 
  1 34 329 2.03940002E+02 1.00000000E+02 
  1 34 330 2.03639999E+02 1.00000000E+02 
  1 34 331 2.03490005E+02 1.00000000E+02 
  1 34 332 2.03710007E+02 1.00000000E+02 
  1 34 333 2.03820007E+02 1.00000000E+02 
  1 34 334 2.04220001E+02 1.00000000E+02 
  1 34 335 2.04240005E+02 1.00000000E+02 
  1 34 336 2.04190002E+02 1.00000000E+02 
  1 34 337 2.04639999E+02 1.00000000E+02 
  1 34 338 2.04940002E+02 1.00000000E+02 
  1 34 339 2.05250000E+02 1.00000000E+02 
  1 34 340 2.05190002E+02 1.00000000E+02 
  1 34 341 2.05500000E+02 1.00000000E+02 
  1 34 342 2.05550003E+02 1.00000000E+02 
  1 34 343 2.05979996E+02 1.00000000E+02 
  1 34 344 2.06309998E+02 1.00000000E+02 
  1 34 345 2.06089996E+02 1.00000000E+02 
  1 34 346 2.06410004E+02 1.00000000E+02 
  1 34 347 2.06729996E+02 1.00000000E+02 
  1 34 348 2.05681015E+02 1.00000000E+02 
  1 34 349 2.06639999E+02 1.00000000E+02 
  1 34 350 2.08539993E+02 1.00000000E+02 
  1 34 351 2.07309998E+02 1.00000000E+02 
  1 34 352 2.08029999E+02 1.00000000E+02 
  1 34 353 2.08789993E+02 1.00000000E+02 
  1 34 354 2.10889999E+02 1.00000000E+02 
  1 34 360 2.11470001E+02 1.00000000E+02 
  1 35 240 1.91619995E+02 1.00000000E+02 
  1 35 241 1.91800003E+02 1.00000000E+02 
  1 35 242 1.92169998E+02 1.00000000E+02 
  1 35 243 1.91830002E+02 1.00000000E+02 
  1 35 244 1.91809998E+02 1.00000000E+02 
  1 35 245 1.92369995E+02 1.00000000E+02 
  1 35 289 2.00289993E+02 1.00000000E+02 
  1 35 290 1.99559998E+02 1.00000000E+02 
  1 35 291 1.99669998E+02 1.00000000E+02 
  1 35 292 2.00039993E+02 1.00000000E+02 
  1 35 293 2.00429993E+02 1.00000000E+02 
  1 35 294 2.00179993E+02 1.00000000E+02 
  1 35 295 2.00160004E+02 1.00000000E+02 
  1 35 296 2.00259995E+02 1.00000000E+02 
  1 35 297 2.00369995E+02 1.00000000E+02 
  1 35 298 2.00529999E+02 1.00000000E+02 
  1 35 299 2.00509995E+02 1.00000000E+02 
  1 35 300 2.00869995E+02 1.00000000E+02 
  1 35 301 2.01520004E+02 1.00000000E+02 
  1 35 302 2.01690002E+02 1.00000000E+02 
  1 35 303 2.01990005E+02 1.00000000E+02 
  1 35 305 2.00539993E+02 1.00000000E+02 
  1 35 306 2.00539993E+02 1.00000000E+02 
  1 35 307 2.00410004E+02 1.00000000E+02 
  1 35 308 2.00460007E+02 1.00000000E+02 
  1 35 309 2.00490005E+02 1.00000000E+02 
  1 35 310 2.00389999E+02 1.00000000E+02 
  1 35 311 2.02080002E+02 1.00000000E+02 
  1 35 312 2.02129990E+02 1.00000000E+02 
  1 35 313 2.01809998E+02 1.00000000E+02 
  1 35 314 2.02169998E+02 1.00000000E+02 
  1 35 315 2.02559998E+02 1.00000000E+02 
  1 35 316 2.02849991E+02 1.00000000E+02 
  1 35 317 2.02459991E+02 1.00000000E+02 
  1 35 318 2.02630005E+02 1.00000000E+02 
  1 35 319 2.02709991E+02 1.00000000E+02 
  1 35 320 2.03059998E+02 1.00000000E+02 
  1 35 321 2.03140015E+02 1.00000000E+02 
  1 35 322 2.03010010E+02 1.00000000E+02 
  1 35 323 2.03420013E+02 1.00000000E+02 
  1 35 324 2.04490005E+02 1.00000000E+02 
  1 35 325 2.04699997E+02 1.00000000E+02 
  1 35 326 2.04100006E+02 1.00000000E+02 
  1 35 327 2.03600006E+02 1.00000000E+02 
  1 35 328 2.03580002E+02 1.00000000E+02 
  1 35 329 2.04009995E+02 1.00000000E+02 
  1 35 330 2.03979996E+02 1.00000000E+02 
  1 35 331 2.03729996E+02 1.00000000E+02 
  1 35 332 2.03720001E+02 1.00000000E+02 
  1 35 333 2.04009995E+02 1.00000000E+02 
  1 35 334 2.04050003E+02 1.00000000E+02 
  1 35 335 2.04429993E+02 1.00000000E+02 
  1 35 336 2.04529999E+02 1.00000000E+02 
  1 35 337 2.04649994E+02 1.00000000E+02 
  1 35 338 2.04910004E+02 1.00000000E+02 
  1 35 339 2.05399994E+02 1.00000000E+02 
  1 35 340 2.05319382E+02 1.00000000E+02 
  1 35 341 2.05570007E+02 1.00000000E+02 
  1 35 342 2.05679993E+02 1.00000000E+02 
  1 35 343 2.06080002E+02 1.00000000E+02 
  1 35 344 2.06419998E+02 1.00000000E+02 
  1 35 345 2.06320007E+02 1.00000000E+02 
  1 35 346 2.06589996E+02 1.00000000E+02 
  1 35 347 2.06800003E+02 1.00000000E+02 
  1 35 348 2.06919998E+02 1.00000000E+02 
  1 35 349 2.06940002E+02 1.00000000E+02 
  1 35 350 2.06949997E+02 1.00000000E+02 
  1 35 351 2.07399994E+02 1.00000000E+02 
  1 35 352 2.07960007E+02 1.00000000E+02 
  1 35 353 2.09130005E+02 1.00000000E+02 
  1 35 354 2.10660004E+02 1.00000000E+02 
  1 35 355 2.11279999E+02 1.00000000E+02 
  1 35 359 2.11729996E+02 1.00000000E+02 
  1 35 360 2.12139999E+02 1.00000000E+02 
  1 36 240 1.91989990E+02 1.00000000E+02 
  1 36 241 1.91959991E+02 1.00000000E+02 
  1 36 242 1.92029999E+02 1.00000000E+02 
  1 36 243 1.92110001E+02 1.00000000E+02 
  1 36 244 1.92022919E+02 1.00000000E+02 
  1 36 245 1.92289993E+02 1.00000000E+02 
  1 36 266 2.00889999E+02 1.00000000E+02 
  1 36 267 2.01380005E+02 1.00000000E+02 
  1 36 290 1.99940002E+02 1.00000000E+02 
  1 36 291 1.99979996E+02 1.00000000E+02 
  1 36 292 2.00080002E+02 1.00000000E+02 
  1 36 293 2.00300003E+02 1.00000000E+02 
  1 36 294 2.00389999E+02 1.00000000E+02 