# File generated by Flopy version 3.6.0 on 04/24/2024 at 14:57:59.
BEGIN options
  BUDGET  FILEOUT  hillslope.cbb
  HEAD  FILEOUT  hillslope.hds
END options

BEGIN period  1
  SAVE  HEAD  ALL
  SAVE  BUDGET  ALL
  PRINT  HEAD  ALL
  PRINT  BUDGET  ALL
END period  1

