# File generated by Flopy version 3.6.0 on 04/24/2024 at 14:57:59.
BEGIN options
  SAVE_FLOWS
END options

BEGIN dimensions
  MAXBOUND  68
END dimensions

BEGIN period  1
  1 2 1 1.78810845E+02
  1 2 12 1.78810845E+02
  1 3 1 1.78767366E+02
  1 3 12 1.78767366E+02
  1 4 1 1.78723888E+02
  1 4 12 1.78723888E+02
  1 5 1 1.78680410E+02
  1 5 12 1.78680410E+02
  1 6 1 1.78636932E+02
  1 6 12 1.78636932E+02
  1 7 1 1.78593453E+02
  1 7 12 1.78593453E+02
  1 8 1 1.78549975E+02
  1 8 12 1.78549975E+02
  1 9 1 1.78506497E+02
  1 9 12 1.78506497E+02
  1 10 1 1.78463019E+02
  1 10 12 1.78463019E+02
  1 11 1 1.78419540E+02
  1 11 12 1.78419540E+02
  1 12 1 1.78376062E+02
  1 12 12 1.78376062E+02
  1 13 1 1.78332584E+02
  1 13 12 1.78332584E+02
  1 14 1 1.78289106E+02
  1 14 12 1.78289106E+02
  1 15 1 1.78245627E+02
  1 15 12 1.78245627E+02
  1 16 1 1.78202149E+02
  1 16 12 1.78202149E+02
  1 17 1 1.78158671E+02
  1 17 12 1.78158671E+02
  1 18 1 1.78115192E+02
  1 18 12 1.78115192E+02
  1 19 1 1.78071714E+02
  1 19 12 1.78071714E+02
  1 20 1 1.78028236E+02
  1 20 12 1.78028236E+02
  1 21 1 1.77984758E+02
  1 21 12 1.77984758E+02
  1 22 1 1.77941279E+02
  1 22 12 1.77941279E+02
  1 23 1 1.77897801E+02
  1 23 12 1.77897801E+02
  1 1 1 1.78854323E+02
  1 24 1 1.77854323E+02
  1 1 2 1.78854323E+02
  1 24 2 1.77854323E+02
  1 1 3 1.78854323E+02
  1 24 3 1.77854323E+02
  1 1 4 1.78854323E+02
  1 24 4 1.77854323E+02
  1 1 5 1.78854323E+02
  1 24 5 1.77854323E+02
  1 1 6 1.78854323E+02
  1 24 6 1.77854323E+02
  1 1 7 1.78854323E+02
  1 24 7 1.77854323E+02
  1 1 8 1.78854323E+02
  1 24 8 1.77854323E+02
  1 1 9 1.78854323E+02
  1 24 9 1.77854323E+02
  1 1 10 1.78854323E+02
  1 24 10 1.77854323E+02
  1 1 11 1.78854323E+02
  1 24 11 1.77854323E+02
  1 1 12 1.78854323E+02
  1 24 12 1.77854323E+02
END period  1

