# File generated by Flopy version 3.6.0 on 04/24/2024 at 14:57:59.
BEGIN options
END options

BEGIN packages
  DIS6  hillslope.dis  dis
  IC6  hillslope.ic  ic
  NPF6  hillslope.npf  npf
  CHD6  hillslope.chd  chd
  RCH6  hillslope.rch  rch_0
  OC6  hillslope.oc  oc
END packages

