# File generated by Flopy version 3.6.0 on 04/24/2024 at 14:57:59.
BEGIN griddata
  strt
    INTERNAL  FACTOR  1.0
       178.35432292     178.35432292     178.35432292     178.35432292     178.35432292     178.35432292     178.35432292     178.35432292     178.35432292     178.35432292     178.35432292     178.35432292
       178.35432292     178.35432292     178.35432292     178.35432292     178.35432292     178.35432292     178.35432292     178.35432292     178.35432292     178.35432292     178.35432292     178.35432292
       178.35432292     178.35432292     178.35432292     178.35432292     178.35432292     178.35432292     178.35432292     178.35432292     178.35432292     178.35432292     178.35432292     178.35432292
       178.35432292     178.35432292     178.35432292     178.35432292     178.35432292     178.35432292     178.35432292     178.35432292     178.35432292     178.35432292     178.35432292     178.35432292
       178.35432292     178.35432292     178.35432292     178.35432292     178.35432292     178.35432292     178.35432292     178.35432292     178.35432292     178.35432292     178.35432292     178.35432292
       178.35432292     178.35432292     178.35432292     178.35432292     178.35432292     178.35432292     178.35432292     178.35432292     178.35432292     178.35432292     178.35432292     178.35432292
       178.35432292     178.35432292     178.35432292     178.35432292     178.35432292     178.35432292     178.35432292     178.35432292     178.35432292     178.35432292     178.35432292     178.35432292
       178.35432292     178.35432292     178.35432292     178.35432292     178.35432292     178.35432292     178.35432292     178.35432292     178.35432292     178.35432292     178.35432292     178.35432292
       178.35432292     178.35432292     178.35432292     178.35432292     178.35432292     178.35432292     178.35432292     178.35432292     178.35432292     178.35432292     178.35432292     178.35432292
       178.35432292     178.35432292     178.35432292     178.35432292     178.35432292     178.35432292     178.35432292     178.35432292     178.35432292     178.35432292     178.35432292     178.35432292
       178.35432292     178.35432292     178.35432292     178.35432292     178.35432292     178.35432292     178.35432292     178.35432292     178.35432292     178.35432292     178.35432292     178.35432292
       178.35432292     178.35432292     178.35432292     178.35432292     178.35432292     178.35432292     178.35432292     178.35432292     178.35432292     178.35432292     178.35432292     178.35432292
       178.35432292     178.35432292     178.35432292     178.35432292     178.35432292     178.35432292     178.35432292     178.35432292     178.35432292     178.35432292     178.35432292     178.35432292
       178.35432292     178.35432292     178.35432292     178.35432292     178.35432292     178.35432292     178.35432292     178.35432292     178.35432292     178.35432292     178.35432292     178.35432292
       178.35432292     178.35432292     178.35432292     178.35432292     178.35432292     178.35432292     178.35432292     178.35432292     178.35432292     178.35432292     178.35432292     178.35432292
       178.35432292     178.35432292     178.35432292     178.35432292     178.35432292     178.35432292     178.35432292     178.35432292     178.35432292     178.35432292     178.35432292     178.35432292
       178.35432292     178.35432292     178.35432292     178.35432292     178.35432292     178.35432292     178.35432292     178.35432292     178.35432292     178.35432292     178.35432292     178.35432292
       178.35432292     178.35432292     178.35432292     178.35432292     178.35432292     178.35432292     178.35432292     178.35432292     178.35432292     178.35432292     178.35432292     178.35432292
       178.35432292     178.35432292     178.35432292     178.35432292     178.35432292     178.35432292     178.35432292     178.35432292     178.35432292     178.35432292     178.35432292     178.35432292
       178.35432292     178.35432292     178.35432292     178.35432292     178.35432292     178.35432292     178.35432292     178.35432292     178.35432292     178.35432292     178.35432292     178.35432292
       178.35432292     178.35432292     178.35432292     178.35432292     178.35432292     178.35432292     178.35432292     178.35432292     178.35432292     178.35432292     178.35432292     178.35432292
       178.35432292     178.35432292     178.35432292     178.35432292     178.35432292     178.35432292     178.35432292     178.35432292     178.35432292     178.35432292     178.35432292     178.35432292
       178.35432292     178.35432292     178.35432292     178.35432292     178.35432292     178.35432292     178.35432292     178.35432292     178.35432292     178.35432292     178.35432292     178.35432292
       178.35432292     178.35432292     178.35432292     178.35432292     178.35432292     178.35432292     178.35432292     178.35432292     178.35432292     178.35432292     178.35432292     178.35432292
END griddata

