# File generated by Flopy version 3.6.0 on 04/24/2024 at 14:57:59.
BEGIN options
END options

BEGIN dimensions
  NLAY  1
  NROW  24
  NCOL  12
END dimensions

BEGIN griddata
  delr
    CONSTANT      25.00000000
  delc
    CONSTANT      25.00000000
  top
    CONSTANT     208.85432292
  botm
    CONSTANT     168.85432292
END griddata

